@<TRIPOS>MOLECULE
7CY
   34    36     1     0     0
SMALL
No Charge or Current Charge


@<TRIPOS>ATOM
      1 N1          -4.2100    -0.2360     1.3770 nb         1 7CY      -0.304000
      2 C2          -3.1060    -0.7520     1.9690 ca         1 7CY       0.182900
      3 C4          -1.6810    -0.1040     0.3020 ca         1 7CY       0.136500
      4 C5          -2.7330     0.4530    -0.3810 ca         1 7CY      -0.104600
      5 C6          -4.0160     0.3720     0.1960 ca         1 7CY       0.451900
      6 C8          -1.0080     0.8040    -1.6200 cc         1 7CY       0.392700
      7 O2           1.5800    -1.0610    -2.4140 oh         1 7CY      -0.639000
      8 C7           1.8460    -0.1770    -1.3140 c5         1 7CY       0.108300
      9 C3           3.1580    -0.5610    -0.5570 c5         1 7CY       0.148300
     10 O3           3.2410    -1.9790    -0.3820 oh         1 7CY      -0.650000
     11 C9           3.0050     0.1760     0.8230 c5         1 7CY      -0.070700
     12 C10          3.9860     1.3550     1.0380 c3         1 7CY       0.168600
     13 O5           5.3380     0.8850     1.0750 oh         1 7CY      -0.655000
     14 C1           0.8010    -0.2870    -0.1630 c5         1 7CY       0.087300
     15 C11          1.5030     0.6300     0.8710 c5         1 7CY      -0.088400
     16 N9          -0.5780     0.1180    -0.4750 na         1 7CY      -0.266300
     17 N7          -2.3360     1.0280    -1.5930 nd         1 7CY      -0.551100
     18 N3          -1.8390    -0.7180     1.4910 nb         1 7CY      -0.215000
     19 N6          -5.1240     0.8880    -0.4010 nv         1 7CY      -1.067900
     20 H1          -3.2510    -1.2460     2.9280 h5         1 7CY       0.046100
     21 H2          -0.3310     1.1070    -2.4100 h5         1 7CY       0.059800
     22 H3           2.0890    -0.7280    -3.1890 ho         1 7CY       0.449000
     23 H4           1.9080     0.8590    -1.6770 h1         1 7CY       0.036700
     24 H5           4.0380    -0.2010    -1.1080 h1         1 7CY       0.055700
     25 H6           2.7580    -2.3540    -1.1540 ho         1 7CY       0.457000
     26 H7           3.2010    -0.5260     1.6430 hc         1 7CY       0.097700
     27 H8           3.8570     2.0840     0.2270 h1         1 7CY       0.018200
     28 H9           3.7370     1.8550     1.9830 h1         1 7CY       0.018200
     29 H10          5.9080     1.6680     1.2440 ho         1 7CY       0.445000
     30 H11          0.7730    -1.3200     0.2140 h1         1 7CY       0.122700
     31 H12          1.0730     0.5250     1.8730 hc         1 7CY       0.058700
     32 H13          1.3930     1.6850     0.5910 hc         1 7CY       0.058700
     33 H14         -5.0320     1.1450    -1.3810 hn         1 7CY       0.506500
     34 H15         -6.0330     0.5450    -0.1050 hn         1 7CY       0.506500
@<TRIPOS>BOND
     1     1     2 ar  
     2     1     5 ar  
     3     2    18 ar  
     4     2    20 1   
     5     3     4 ar  
     6     3    16 1   
     7     3    18 ar  
     8     4     5 ar  
     9     4    17 1   
    10     5    19 1   
    11     6    16 1   
    12     6    17 2   
    13     6    21 1   
    14     7     8 1   
    15     7    22 1   
    16     8     9 1   
    17     8    14 1   
    18     8    23 1   
    19     9    10 1   
    20     9    11 1   
    21     9    24 1   
    22    10    25 1   
    23    11    12 1   
    24    11    15 1   
    25    11    26 1   
    26    12    13 1   
    27    12    27 1   
    28    12    28 1   
    29    13    29 1   
    30    14    15 1   
    31    14    16 1   
    32    14    30 1   
    33    15    31 1   
    34    15    32 1   
    35    19    33 1   
    36    19    34 1   
@<TRIPOS>SUBSTRUCTURE
     1 7CY         1 TEMP              0 ****  ****    0 ROOT
