@<TRIPOS>MOLECULE
7CY
   34    36     1     0     0
SMALL
bcc


@<TRIPOS>ATOM
      1 N1          -4.2500    -0.8570     0.5510 nb         1 7CY      -0.830000
      2 C2          -3.2280    -1.5740     1.0140 ca         1 7CY       0.708900
      3 C4          -1.7010    -0.2010     0.2360 ca         1 7CY       0.464800
      4 C5          -2.6560     0.6480    -0.3030 ca         1 7CY      -0.235200
      5 C6          -4.0000     0.2730    -0.1200 ca         1 7CY       0.780200
      6 C8          -0.7880     1.5110    -0.7580 cc         1 7CY       0.392700
      7 O2           1.1490    -1.5100    -1.6980 oh         1 7CY      -0.576800
      8 C7           1.6730    -0.4440    -0.9570 c5         1 7CY       0.085100
      9 C3           3.0440    -0.7080    -0.3270 c5         1 7CY       0.125100
     10 O3           3.0840    -1.9960     0.2460 oh         1 7CY      -0.587800
     11 C9           3.1370     0.3350     0.8010 c5         1 7CY      -0.070700
     12 C10          4.0070     1.5260     0.4450 c3         1 7CY       0.145400
     13 O5           5.3450     1.1020     0.3200 oh         1 7CY      -0.592800
     14 C1           0.8080    -0.1530     0.2630 c5         1 7CY       0.058000
     15 C11          1.6860     0.7880     1.0860 c5         1 7CY      -0.088400
     16 N9          -0.5000     0.3710    -0.0620 na         1 7CY      -0.237000
     17 N7          -2.0630     1.7160    -0.9230 nd         1 7CY      -0.551100
     18 N3          -1.9350    -1.3280     0.9060 nb         1 7CY      -0.741000
     19 N6          -5.0200     0.9970    -0.5840 nv         1 7CY      -0.957500
     20 H1          -3.5000    -2.4780     1.5490 h5         1 7CY       0.046100
     21 H2          -0.0070     2.1620    -1.1240 h5         1 7CY       0.059800
     22 H3           1.5490    -1.5050    -2.5730 ho         1 7CY       0.410000
     23 H4           1.7430     0.4700    -1.5650 h1         1 7CY       0.036700
     24 H5           3.8470    -0.5850    -1.0640 h1         1 7CY       0.055700
     25 H6           2.7490    -2.6190    -0.4090 ho         1 7CY       0.418000
     26 H7           3.5630    -0.1450     1.6860 hc         1 7CY       0.097700
     27 H8           3.6410     1.9830    -0.4860 h1         1 7CY       0.018200
     28 H9           3.8970     2.2870     1.2290 h1         1 7CY       0.018200
     29 H10          5.8660     1.8410    -0.0040 ho         1 7CY       0.406000
     30 H11          0.6350    -1.0830     0.8080 h1         1 7CY       0.122700
     31 H12          1.4350     0.7620     2.1450 hc         1 7CY       0.058700
     32 H13          1.5370     1.8190     0.7510 hc         1 7CY       0.058700
     33 H14         -4.8640     1.8400    -1.1070 hn         1 7CY       0.451300
     34 H15         -5.9670     0.6860    -0.4490 hn         1 7CY       0.451300
@<TRIPOS>BOND
     1     1     2 ar  
     2     1     5 ar  
     3     2    18 ar  
     4     2    20 1   
     5     3     4 ar  
     6     3    16 1   
     7     3    18 ar  
     8     4     5 ar  
     9     4    17 1   
    10     5    19 1   
    11     6    16 1   
    12     6    17 2   
    13     6    21 1   
    14     7     8 1   
    15     7    22 1   
    16     8     9 1   
    17     8    14 1   
    18     8    23 1   
    19     9    10 1   
    20     9    11 1   
    21     9    24 1   
    22    10    25 1   
    23    11    12 1   
    24    11    15 1   
    25    11    26 1   
    26    12    13 1   
    27    12    27 1   
    28    12    28 1   
    29    13    29 1   
    30    14    15 1   
    31    14    16 1   
    32    14    30 1   
    33    15    31 1   
    34    15    32 1   
    35    19    33 1   
    36    19    34 1   
@<TRIPOS>SUBSTRUCTURE
     1 7CY         1 TEMP              0 ****  ****    0 ROOT
