@<TRIPOS>MOLECULE
7CZ
   15    15     1     0     0
SMALL
abcg2


@<TRIPOS>ATOM
      1 SAH          2.3150    -0.6200    -0.0300 s          1 7CZ      -0.578400
      2 CAF          0.6420    -0.3670    -0.0350 cs         1 7CZ       0.252800
      3 CAG         -0.2380    -1.4690    -0.0250 cc         1 7CZ      -0.206200
      4 CAD         -1.6130    -1.5490    -0.0270 cd         1 7CZ      -0.092000
      5 CAC         -2.5690    -0.5330    -0.0400 cd         1 7CZ      -0.208000
      6 CAB         -2.3230     0.8210    -0.0540 cc         1 7CZ      -0.081000
      7 CAA         -1.1040     1.4960    -0.0570 cc         1 7CZ      -0.229000
      8 CAE          0.1940     1.0140    -0.0480 cd         1 7CZ       0.174900
      9 OAI          1.1350     1.9350    -0.0530 oh         1 7CZ      -0.525100
     10 H1           0.2690    -2.4260    -0.0140 ha         1 7CZ       0.208000
     11 H2          -2.0060    -2.5590    -0.0160 ha         1 7CZ       0.184000
     12 H3          -3.6060    -0.8420    -0.0390 ha         1 7CZ       0.188000
     13 H4          -3.1930     1.4640    -0.0640 ha         1 7CZ       0.184000
     14 H5          -1.1760     2.5770    -0.0670 ha         1 7CZ       0.202000
     15 H6           2.0070     1.4660    -0.0480 ho         1 7CZ       0.527000
@<TRIPOS>BOND
     1     1     2 2   
     2     2     3 1   
     3     2     8 1   
     4     3     4 2   
     5     3    10 1   
     6     4     5 1   
     7     4    11 1   
     8     5     6 2   
     9     5    12 1   
    10     6     7 1   
    11     6    13 1   
    12     7     8 2   
    13     7    14 1   
    14     8     9 1   
    15     9    15 1   
@<TRIPOS>SUBSTRUCTURE
     1 7CZ         1 TEMP              0 ****  ****    0 ROOT
