@<TRIPOS>MOLECULE
7CZ
   15    15     1     0     0
SMALL
No Charge or Current Charge


@<TRIPOS>ATOM
      1 SAH          2.3190    -0.5890    -0.0270 s          1 7CZ      -0.578400
      2 CAF          0.6500    -0.3330    -0.0340 cs         1 7CZ       0.252800
      3 CAG         -0.2290    -1.4690    -0.0250 cc         1 7CZ      -0.206200
      4 CAD         -1.6050    -1.5830    -0.0270 cd         1 7CZ      -0.092000
      5 CAC         -2.5770    -0.5270    -0.0400 cd         1 7CZ      -0.208000
      6 CAB         -2.3510     0.8310    -0.0530 cc         1 7CZ      -0.081000
      7 CAA         -1.1100     1.5410    -0.0570 cc         1 7CZ      -0.229000
      8 CAE          0.1690     1.0420    -0.0490 cd         1 7CZ       0.174900
      9 OAI          1.2030     1.9150    -0.0550 oh         1 7CZ      -0.525100
     10 H1           0.3230    -2.4040    -0.0140 ha         1 7CZ       0.208000
     11 H2          -2.0020    -2.5960    -0.0180 ha         1 7CZ       0.184000
     12 H3          -3.6200    -0.8390    -0.0400 ha         1 7CZ       0.188000
     13 H4          -3.2360     1.4670    -0.0620 ha         1 7CZ       0.184000
     14 H5          -1.2030     2.6240    -0.0680 ha         1 7CZ       0.202000
     15 H6           2.0020     1.3300    -0.0470 ho         1 7CZ       0.527000
@<TRIPOS>BOND
     1     1     2 2   
     2     2     3 1   
     3     2     8 1   
     4     3     4 2   
     5     3    10 1   
     6     4     5 1   
     7     4    11 1   
     8     5     6 2   
     9     5    12 1   
    10     6     7 1   
    11     6    13 1   
    12     7     8 2   
    13     7    14 1   
    14     8     9 1   
    15     9    15 1   
@<TRIPOS>SUBSTRUCTURE
     1 7CZ         1 TEMP              0 ****  ****    0 ROOT
