@<TRIPOS>MOLECULE
7D0
   37    39     1     0     0
SMALL
abcg2


@<TRIPOS>ATOM
      1 CAN          2.6270     1.1230    -0.8160 ca         1 7D0      -0.245000
      2 CAP          3.9860     0.9140    -0.7450 ca         1 7D0       0.237500
      3 FAE          4.7730     1.5470    -1.6250 f          1 7D0      -0.172500
      4 CAO          4.5830     0.0840     0.1860 ca         1 7D0      -0.241000
      5 CAS          3.7250    -0.5410     1.0680 ca         1 7D0       0.237500
      6 FAF          4.2510    -1.3590     1.9890 f          1 7D0      -0.172500
      7 CAR          2.3530    -0.3800     1.0570 ca         1 7D0      -0.245000
      8 CAM          1.7960     0.4670     0.0980 ca         1 7D0       0.226100
      9 OAL          0.4950     0.7600    -0.0130 os         1 7D0      -0.337100
     10 CAD         -0.5090     0.0480     0.7030 c6         1 7D0       0.192300
     11 CAH         -1.6610     1.0000     0.9490 cx         1 7D0      -0.130700
     12 CAI         -2.1250     1.9290    -0.1350 cx         1 7D0      -0.091400
     13 CAG         -3.0060     0.8050     0.2960 cx         1 7D0      -0.091000
     14 CAQ         -4.2150     1.1760     1.1150 c3         1 7D0       0.201600
     15 OAT         -5.2370     1.5940     0.2380 oh         1 7D0      -0.657000
     16 CAA         -3.2040    -0.3490    -0.6640 c6         1 7D0       0.211300
     17 OAU         -3.8740    -1.3790     0.0280 oh         1 7D0      -0.728000
     18 CAB         -1.8760    -0.8660    -1.2190 c6         1 7D0       0.136300
     19 OAJ         -2.1720    -2.0060    -1.9910 oh         1 7D0      -0.672000
     20 CAC         -0.9280    -1.2070    -0.0730 c6         1 7D0       0.110300
     21 OAK          0.1770    -1.8780    -0.6310 oh         1 7D0      -0.720000
     22 H1           2.2060     1.7820    -1.5630 ha         1 7D0       0.140500
     23 H2           5.6530    -0.0690     0.2190 ha         1 7D0       0.152000
     24 H3           1.7620    -0.9130     1.7880 ha         1 7D0       0.140500
     25 H4          -0.1260    -0.2590     1.6790 h1         1 7D0       0.051700
     26 H5          -1.6820     1.4100     1.9520 hc         1 7D0       0.088700
     27 H6          -2.4080     2.9320     0.1600 hc         1 7D0       0.085200
     28 H7          -1.6430     1.8870    -1.1040 hc         1 7D0       0.085200
     29 H8          -4.5320     0.3250     1.7260 h1         1 7D0       0.028700
     30 H9          -3.9360     1.9780     1.8130 h1         1 7D0       0.028700
     31 H10         -6.0600     1.6320     0.7330 ho         1 7D0       0.445000
     32 H11         -3.8160    -0.0010    -1.5100 h1         1 7D0       0.070700
     33 H12         -3.9140    -2.1440    -0.5580 ho         1 7D0       0.523000
     34 H13         -1.4170    -0.0940    -1.8530 h1         1 7D0       0.065700
     35 H14         -1.3530    -2.5050    -2.0990 ho         1 7D0       0.469000
     36 H15         -1.4610    -1.8540     0.6330 h1         1 7D0       0.062700
     37 H16          0.5330    -2.5000     0.0100 ho         1 7D0       0.514000
@<TRIPOS>BOND
     1     1     2 ar  
     2     1     8 ar  
     3     1    22 1   
     4     2     3 1   
     5     2     4 ar  
     6     4     5 ar  
     7     4    23 1   
     8     5     6 1   
     9     5     7 ar  
    10     7     8 ar  
    11     7    24 1   
    12     8     9 1   
    13     9    10 1   
    14    10    11 1   
    15    10    20 1   
    16    10    25 1   
    17    11    12 1   
    18    11    13 1   
    19    11    26 1   
    20    12    13 1   
    21    12    27 1   
    22    12    28 1   
    23    13    14 1   
    24    13    16 1   
    25    14    15 1   
    26    14    29 1   
    27    14    30 1   
    28    15    31 1   
    29    16    17 1   
    30    16    18 1   
    31    16    32 1   
    32    17    33 1   
    33    18    19 1   
    34    18    20 1   
    35    18    34 1   
    36    19    35 1   
    37    20    21 1   
    38    20    36 1   
    39    21    37 1   
@<TRIPOS>SUBSTRUCTURE
     1 7D0         1 TEMP              0 ****  ****    0 ROOT
