@<TRIPOS>MOLECULE
7D0
   37    39     1     0     0
SMALL
No Charge or Current Charge


@<TRIPOS>ATOM
      1 CAN          2.6430     1.1040    -0.8530 ca         1 7D0      -0.245000
      2 CAP          4.0140     0.8270    -0.8980 ca         1 7D0       0.237500
      3 FAE          4.7810     1.3860    -1.8580 f          1 7D0      -0.172500
      4 CAO          4.5960    -0.0250     0.0470 ca         1 7D0      -0.241000
      5 CAS          3.7950    -0.5940     1.0440 ca         1 7D0       0.237500
      6 FAF          4.3540    -1.4060     1.9660 f          1 7D0      -0.172500
      7 CAR          2.4200    -0.3260     1.0980 ca         1 7D0      -0.245000
      8 CAM          1.8340     0.5230     0.1330 ca         1 7D0       0.226100
      9 OAL          0.4930     0.8510     0.1230 os         1 7D0      -0.337100
     10 CAD         -0.5240     0.0470     0.7750 c6         1 7D0       0.192300
     11 CAH         -1.7430     0.9600     1.0600 cx         1 7D0      -0.130700
     12 CAI         -2.1700     1.9700     0.0100 cx         1 7D0      -0.091400
     13 CAG         -3.0780     0.8020     0.3360 cx         1 7D0      -0.091000
     14 CAQ         -4.3850     1.1590     1.0580 c3         1 7D0       0.201600
     15 OAT         -5.3230     1.7610     0.1560 oh         1 7D0      -0.657000
     16 CAA         -3.2290    -0.3440    -0.7050 c6         1 7D0       0.211300
     17 OAU         -3.9460    -1.4480    -0.1270 oh         1 7D0      -0.728000
     18 CAB         -1.8600    -0.8810    -1.2310 c6         1 7D0       0.136300
     19 OAJ         -2.0630    -2.0650    -2.0260 oh         1 7D0      -0.672000
     20 CAC         -0.9070    -1.2360    -0.0530 c6         1 7D0       0.110300
     21 OAK          0.2380    -1.9560    -0.5780 oh         1 7D0      -0.720000
     22 H1           2.2020     1.7680    -1.5910 ha         1 7D0       0.140500
     23 H2           5.6600    -0.2370     0.0120 ha         1 7D0       0.152000
     24 H3           1.8440    -0.7690     1.9010 ha         1 7D0       0.140500
     25 H4          -0.1620    -0.2660     1.7620 h1         1 7D0       0.051700
     26 H5          -1.7780     1.2940     2.0950 hc         1 7D0       0.088700
     27 H6          -2.4610     2.9580     0.3580 hc         1 7D0       0.085200
     28 H7          -1.6650     1.9760    -0.9530 hc         1 7D0       0.085200
     29 H8          -4.8180     0.2630     1.5230 h1         1 7D0       0.028700
     30 H9          -4.1620     1.8580     1.8760 h1         1 7D0       0.028700
     31 H10         -6.1380     1.9410     0.6760 ho         1 7D0       0.445000
     32 H11         -3.7890     0.0590    -1.5630 h1         1 7D0       0.070700
     33 H12         -3.7220    -2.2000    -0.7270 ho         1 7D0       0.523000
     34 H13         -1.3820    -0.1020    -1.8430 h1         1 7D0       0.065700
     35 H14         -1.1870    -2.5210    -1.9720 ho         1 7D0       0.469000
     36 H15         -1.4590    -1.8970     0.6330 h1         1 7D0       0.062700
     37 H16          0.8410    -2.1470     0.1770 ho         1 7D0       0.514000
@<TRIPOS>BOND
     1     1     2 ar  
     2     1     8 ar  
     3     1    22 1   
     4     2     3 1   
     5     2     4 ar  
     6     4     5 ar  
     7     4    23 1   
     8     5     6 1   
     9     5     7 ar  
    10     7     8 ar  
    11     7    24 1   
    12     8     9 1   
    13     9    10 1   
    14    10    11 1   
    15    10    20 1   
    16    10    25 1   
    17    11    12 1   
    18    11    13 1   
    19    11    26 1   
    20    12    13 1   
    21    12    27 1   
    22    12    28 1   
    23    13    14 1   
    24    13    16 1   
    25    14    15 1   
    26    14    29 1   
    27    14    30 1   
    28    15    31 1   
    29    16    17 1   
    30    16    18 1   
    31    16    32 1   
    32    17    33 1   
    33    18    19 1   
    34    18    20 1   
    35    18    34 1   
    36    19    35 1   
    37    20    21 1   
    38    20    36 1   
    39    21    37 1   
@<TRIPOS>SUBSTRUCTURE
     1 7D0         1 TEMP              0 ****  ****    0 ROOT
