@<TRIPOS>MOLECULE
7D1
   22    22     1     0     0
SMALL
No Charge or Current Charge


@<TRIPOS>ATOM
      1 O4           0.4270     2.2110     0.1490 oh         1 7D1      -0.721000
      2 C4           0.4080     0.8370    -0.2800 c6         1 7D1       0.142300
      3 C5          -0.8590     0.0710     0.2180 c6         1 7D1       0.169300
      4 C6          -2.1860     0.6940    -0.3300 c3         1 7D1       0.170600
      5 O6          -3.3690    -0.0310     0.0680 oh         1 7D1      -0.712000
      6 C3           1.6870     0.1120     0.2370 c6         1 7D1       0.132300
      7 O3           2.8640     0.7520    -0.2790 oh         1 7D1      -0.667000
      8 C2           1.6630    -1.3800    -0.1700 c6         1 7D1      -0.146400
      9 C1           0.3480    -2.0410     0.3100 c6         1 7D1       0.158600
     10 O5          -0.7880    -1.3170    -0.2100 os         1 7D1      -0.436000
     11 H1           1.3720     2.4850     0.0540 ho         1 7D1       0.522000
     12 H2           0.4140     0.7950    -1.3800 h1         1 7D1       0.053700
     13 H3          -0.8940     0.1010     1.3170 h1         1 7D1       0.056700
     14 H4          -2.2490     1.7320     0.0230 h1         1 7D1       0.035200
     15 H5          -2.1180     0.7290    -1.4260 h1         1 7D1       0.035200
     16 H6          -4.1350     0.4030    -0.3760 ho         1 7D1       0.502000
     17 H7           1.6910     0.1630     1.3360 h1         1 7D1       0.040700
     18 H8           3.6350     0.2370     0.0490 ho         1 7D1       0.449000
     19 H9           1.7450    -1.4790    -1.2610 hc         1 7D1       0.058700
     20 H10          2.5210    -1.9090     0.2650 hc         1 7D1       0.058700
     21 H11          0.3000    -3.0820    -0.0420 h1         1 7D1       0.049700
     22 H12          0.3010    -2.0490     1.4090 h1         1 7D1       0.049700
@<TRIPOS>BOND
     1     1     2 1   
     2     1    11 1   
     3     2     3 1   
     4     2     6 1   
     5     2    12 1   
     6     3     4 1   
     7     3    10 1   
     8     3    13 1   
     9     4     5 1   
    10     4    14 1   
    11     4    15 1   
    12     5    16 1   
    13     6     7 1   
    14     6     8 1   
    15     6    17 1   
    16     7    18 1   
    17     8     9 1   
    18     8    19 1   
    19     8    20 1   
    20     9    10 1   
    21     9    21 1   
    22     9    22 1   
@<TRIPOS>SUBSTRUCTURE
     1 7D1         1 TEMP              0 ****  ****    0 ROOT
