@<TRIPOS>MOLECULE
7D1
   22    22     1     0     0
SMALL
bcc


@<TRIPOS>ATOM
      1 O4           0.3650     2.1050     0.2240 oh         1 7D1      -0.598800
      2 C4           0.4300     0.7890    -0.2710 c6         1 7D1       0.119100
      3 C5          -0.8300     0.0460     0.1850 c6         1 7D1       0.146100
      4 C6          -2.0880     0.6750    -0.3770 c3         1 7D1       0.147400
      5 O6          -3.2080     0.0280     0.1810 oh         1 7D1      -0.589800
      6 C3           1.6700     0.0620     0.2350 c6         1 7D1       0.109100
      7 O3           2.7940     0.7460    -0.2800 oh         1 7D1      -0.604800
      8 C2           1.6230    -1.4000    -0.1840 c6         1 7D1      -0.146400
      9 C1           0.3100    -2.0140     0.2690 c6         1 7D1       0.135400
     10 O5          -0.7910    -1.2960    -0.2440 os         1 7D1      -0.389600
     11 H1           1.1820     2.5520    -0.0210 ho         1 7D1       0.423000
     12 H2           0.4550     0.7790    -1.3730 h1         1 7D1       0.053700
     13 H3          -0.8740     0.0910     1.2870 h1         1 7D1       0.056700
     14 H4          -2.0820     1.7440    -0.1400 h1         1 7D1       0.035200
     15 H5          -2.0700     0.5880    -1.4720 h1         1 7D1       0.035200
     16 H6          -3.9980     0.4620    -0.1530 ho         1 7D1       0.403000
     17 H7           1.6610     0.1140     1.3340 h1         1 7D1       0.040700
     18 H8           3.5710     0.4730     0.2160 ho         1 7D1       0.410000
     19 H9           1.7160    -1.4780    -1.2720 hc         1 7D1       0.058700
     20 H10          2.4580    -1.9510     0.2550 hc         1 7D1       0.058700
     21 H11          0.2140    -3.0400    -0.0870 h1         1 7D1       0.049700
     22 H12          0.2710    -2.0420     1.3680 h1         1 7D1       0.049700
@<TRIPOS>BOND
     1     1     2 1   
     2     1    11 1   
     3     2     3 1   
     4     2     6 1   
     5     2    12 1   
     6     3     4 1   
     7     3    10 1   
     8     3    13 1   
     9     4     5 1   
    10     4    14 1   
    11     4    15 1   
    12     5    16 1   
    13     6     7 1   
    14     6     8 1   
    15     6    17 1   
    16     7    18 1   
    17     8     9 1   
    18     8    19 1   
    19     8    20 1   
    20     9    10 1   
    21     9    21 1   
    22     9    22 1   
@<TRIPOS>SUBSTRUCTURE
     1 7D1         1 TEMP              0 ****  ****    0 ROOT
