@<TRIPOS>MOLECULE
7D2
   27    28     1     0     0
SMALL
No Charge or Current Charge


@<TRIPOS>ATOM
      1 OAJ          1.0550     1.8170     0.7250 oh         1 7D2      -0.728000
      2 CAL          0.7650     0.9260    -0.3640 c6         1 7D2       0.215300
      3 CAI         -0.7690     1.0140    -0.6490 c6         1 7D2       0.134300
      4 OAA         -1.1820     2.3910    -0.7470 oh         1 7D2      -0.734000
      5 CAG         -1.5860     0.3310     0.4860 c6         1 7D2       0.089300
      6 OAD         -3.0060     0.5280     0.2620 oh         1 7D2      -0.738000
      7 CAM         -1.2710    -1.1910     0.6010 c6         1 7D2       0.188300
      8 OAE         -2.0410    -1.8810    -0.3850 oh         1 7D2      -0.712000
      9 CAB          0.2260    -1.5490     0.4300 cx         1 7D2      -0.119700
     10 CAH          0.8360    -1.6440    -0.9570 cx         1 7D2      -0.091400
     11 CAC          1.2500    -0.5160    -0.0330 cx         1 7D2      -0.102000
     12 CAF          2.6880    -0.5790     0.4990 c3         1 7D2       0.202600
     13 OAK          3.6310    -0.2240    -0.5210 oh         1 7D2      -0.657000
     14 H1           0.4290     2.5640     0.5600 ho         1 7D2       0.521000
     15 H2           1.2990     1.2550    -1.2680 h1         1 7D2       0.067700
     16 H3          -0.9820     0.4950    -1.5960 h1         1 7D2       0.065700
     17 H4          -2.1640     2.3490    -0.6240 ho         1 7D2       0.526000
     18 H5          -1.2920     0.7980     1.4390 h1         1 7D2       0.063700
     19 H6          -3.4460     0.5490     1.1480 ho         1 7D2       0.513000
     20 H7          -1.5770    -1.5220     1.6050 h1         1 7D2       0.031700
     21 H8          -2.7900    -1.2520    -0.5370 ho         1 7D2       0.516000
     22 H9           0.5560    -2.2950     1.1490 hc         1 7D2       0.084700
     23 H10          1.5480    -2.4470    -1.1330 hc         1 7D2       0.082200
     24 H11          0.2210    -1.4070    -1.8200 hc         1 7D2       0.082200
     25 H12          2.7980     0.0800     1.3700 h1         1 7D2       0.026700
     26 H13          2.8950    -1.5990     0.8500 h1         1 7D2       0.026700
     27 H14          4.5210    -0.2640    -0.1090 ho         1 7D2       0.443000
@<TRIPOS>BOND
     1     1     2 1   
     2     1    14 1   
     3     2     3 1   
     4     2    11 1   
     5     2    15 1   
     6     3     4 1   
     7     3     5 1   
     8     3    16 1   
     9     4    17 1   
    10     5     6 1   
    11     5     7 1   
    12     5    18 1   
    13     6    19 1   
    14     7     8 1   
    15     7     9 1   
    16     7    20 1   
    17     8    21 1   
    18     9    10 1   
    19     9    11 1   
    20     9    22 1   
    21    10    11 1   
    22    10    23 1   
    23    10    24 1   
    24    11    12 1   
    25    12    13 1   
    26    12    25 1   
    27    12    26 1   
    28    13    27 1   
@<TRIPOS>SUBSTRUCTURE
     1 7D2         1 TEMP              0 ****  ****    0 ROOT
