@<TRIPOS>MOLECULE
7D2
   27    28     1     0     0
SMALL
abcg2


@<TRIPOS>ATOM
      1 OAJ          1.0700     1.7480     0.6820 oh         1 7D2      -0.728000
      2 CAL          0.7370     0.9090    -0.4020 c6         1 7D2       0.215300
      3 CAI         -0.7710     0.9620    -0.6580 c6         1 7D2       0.134300
      4 OAA         -1.1100     2.3240    -0.8040 oh         1 7D2      -0.734000
      5 CAG         -1.5120     0.3170     0.5050 c6         1 7D2       0.089300
      6 OAD         -2.8940     0.5890     0.3470 oh         1 7D2      -0.738000
      7 CAM         -1.2610    -1.1930     0.5530 c6         1 7D2       0.188300
      8 OAE         -2.0020    -1.8650    -0.4410 oh         1 7D2      -0.712000
      9 CAB          0.2080    -1.5260     0.3890 cx         1 7D2      -0.119700
     10 CAH          0.8130    -1.6060    -0.9830 cx         1 7D2      -0.091400
     11 CAC          1.2090    -0.4930    -0.0690 cx         1 7D2      -0.102000
     12 CAF          2.5870    -0.5850     0.5320 c3         1 7D2       0.202600
     13 OAK          3.5230    -0.0980    -0.4050 oh         1 7D2      -0.657000
     14 H1           0.6450     2.6000     0.5250 ho         1 7D2       0.521000
     15 H2           1.2540     1.2450    -1.3120 h1         1 7D2       0.067700
     16 H3          -1.0080     0.4190    -1.5840 h1         1 7D2       0.065700
     17 H4          -2.0630     2.4040    -0.6820 ho         1 7D2       0.526000
     18 H5          -1.1410     0.7520     1.4400 h1         1 7D2       0.063700
     19 H6          -3.3030     0.6410     1.2160 ho         1 7D2       0.513000
     20 H7          -1.5710    -1.5400     1.5490 h1         1 7D2       0.031700
     21 H8          -2.9040    -1.5260    -0.3990 ho         1 7D2       0.516000
     22 H9           0.5850    -2.2500     1.1040 hc         1 7D2       0.084700
     23 H10          1.5420    -2.3870    -1.1650 hc         1 7D2       0.082200
     24 H11          0.1860    -1.3950    -1.8380 hc         1 7D2       0.082200
     25 H12          2.6270    -0.0210     1.4700 h1         1 7D2       0.026700
     26 H13          2.7850    -1.6360     0.7850 h1         1 7D2       0.026700
     27 H14          4.3830    -0.0620     0.0250 ho         1 7D2       0.443000
@<TRIPOS>BOND
     1     1     2 1   
     2     1    14 1   
     3     2     3 1   
     4     2    11 1   
     5     2    15 1   
     6     3     4 1   
     7     3     5 1   
     8     3    16 1   
     9     4    17 1   
    10     5     6 1   
    11     5     7 1   
    12     5    18 1   
    13     6    19 1   
    14     7     8 1   
    15     7     9 1   
    16     7    20 1   
    17     8    21 1   
    18     9    10 1   
    19     9    11 1   
    20     9    22 1   
    21    10    11 1   
    22    10    23 1   
    23    10    24 1   
    24    11    12 1   
    25    12    13 1   
    26    12    25 1   
    27    12    26 1   
    28    13    27 1   
@<TRIPOS>SUBSTRUCTURE
     1 7D2         1 TEMP              0 ****  ****    0 ROOT
