@<TRIPOS>MOLECULE
7D6
   40    43     1     0     0
SMALL
bcc


@<TRIPOS>ATOM
      1 C10          0.6680     2.1430     0.1910 ca         1 7D6      -0.110000
      2 N12          5.8070    -1.0380    -0.3330 ns         1 7D6      -0.569900
      3 C15         -3.3530     0.8500    -1.5680 c5         1 7D6      -0.084400
      4 C21         -3.5480    -1.4070     1.3570 cc         1 7D6       0.328200
      5 C22          7.2510    -1.0360    -0.3350 c3         1 7D6       0.094300
      6 C01          3.6050    -0.1460     0.1000 ca         1 7D6      -0.148600
      7 C02          2.9430    -1.3910    -0.0300 ca         1 7D6      -0.112000
      8 C03          1.5790    -1.4540    -0.0840 ca         1 7D6      -0.118000
      9 C04          0.7950    -0.2790    -0.0170 ca         1 7D6      -0.028000
     10 C05          1.4530     0.9690     0.1190 ca         1 7D6      -0.045000
     11 C06          2.8610     1.0040     0.1850 ca         1 7D6      -0.055000
     12 C07         -0.6150    -0.3150    -0.0700 ca         1 7D6      -0.099000
     13 C08         -1.3600     0.8330     0.0090 ca         1 7D6      -0.102300
     14 C09         -0.6960     2.0770     0.1380 ca         1 7D6      -0.115000
     15 C11          5.0950    -0.0230     0.1740 c          1 7D6       0.676700
     16 O13          5.6260     0.9650     0.6690 o          1 7D6      -0.604100
     17 C14         -2.8710     0.8030    -0.0960 c5         1 7D6       0.287400
     18 C16         -4.7120     0.1370    -1.5770 c5         1 7D6       0.045300
     19 N17         -4.5540    -0.7800    -0.4630 na         1 7D6      -0.182900
     20 C18         -3.5190    -0.4710     0.3610 cd         1 7D6      -0.284900
     21 C19         -5.1740    -1.8630     0.0340 cd         1 7D6       0.409400
     22 N20         -4.5840    -2.2720     1.1360 nc         1 7D6      -0.679000
     23 O23         -3.4640     1.9080     0.5580 oh         1 7D6      -0.589800
     24 H101         1.1620     3.1010     0.2930 ha         1 7D6       0.139000
     25 H121         5.3430    -1.7790    -0.8300 hn         1 7D6       0.316500
     26 H152        -3.4090     1.8720    -1.9420 hc         1 7D6       0.072200
     27 H151        -2.6490     0.3000    -2.1920 hc         1 7D6       0.072200
     28 H211        -2.8840    -1.5150     2.2020 h4         1 7D6       0.041100
     29 H221         7.6580    -0.2670    -0.9930 h1         1 7D6       0.041033
     30 H222         7.6450    -0.8720     0.6670 h1         1 7D6       0.041033
     31 H223         7.5950    -2.0050    -0.6850 h1         1 7D6       0.041033
     32 H021         3.5050    -2.3160    -0.0600 ha         1 7D6       0.129000
     33 H031         1.0840    -2.4140    -0.1730 ha         1 7D6       0.137000
     34 H061         3.3560     1.9610     0.2980 ha         1 7D6       0.157000
     35 H071        -1.1030    -1.2770    -0.1760 ha         1 7D6       0.145000
     36 H091        -1.2750     2.9890     0.1980 ha         1 7D6       0.146000
     37 H161        -5.5430     0.8180    -1.3930 h1         1 7D6       0.065700
     38 H162        -4.9000    -0.3980    -2.5050 h1         1 7D6       0.065700
     39 H191        -6.0300    -2.3210    -0.4370 h5         1 7D6       0.058100
     40 H231        -3.3140     1.8240     1.5060 ho         1 7D6       0.419000
@<TRIPOS>BOND
     1     1    10 ar  
     2     1    14 ar  
     3     1    24 1   
     4     2     5 1   
     5     2    15 1   
     6     2    25 1   
     7     3    17 1   
     8     3    18 1   
     9     3    26 1   
    10     3    27 1   
    11     4    20 2   
    12     4    22 1   
    13     4    28 1   
    14     5    29 1   
    15     5    30 1   
    16     5    31 1   
    17     6     7 ar  
    18     6    11 ar  
    19     6    15 1   
    20     7     8 ar  
    21     7    32 1   
    22     8     9 ar  
    23     8    33 1   
    24     9    10 ar  
    25     9    12 ar  
    26    10    11 ar  
    27    11    34 1   
    28    12    13 ar  
    29    12    35 1   
    30    13    14 ar  
    31    13    17 1   
    32    14    36 1   
    33    15    16 2   
    34    17    20 1   
    35    17    23 1   
    36    18    19 1   
    37    18    37 1   
    38    18    38 1   
    39    19    20 1   
    40    19    21 1   
    41    21    22 2   
    42    21    39 1   
    43    23    40 1   
@<TRIPOS>SUBSTRUCTURE
     1 7D6         1 TEMP              0 ****  ****    0 ROOT
