@<TRIPOS>MOLECULE
7D6
   40    43     1     0     0
SMALL
No Charge or Current Charge


@<TRIPOS>ATOM
      1 C10          0.6250     2.1340     0.7000 ca         1 7D6      -0.092000
      2 N12          5.7070    -1.1940    -0.3800 ns         1 7D6      -0.502900
      3 C15         -3.4120     0.8530    -1.6100 c5         1 7D6      -0.084400
      4 C21         -3.8270    -0.6500     1.7340 cc         1 7D6       0.262900
      5 C22          7.1630    -1.3450    -0.3350 c3         1 7D6       0.094300
      6 C01          3.5160    -0.1080    -0.0680 ca         1 7D6      -0.148600
      7 C02          2.8220    -1.2170    -0.6120 ca         1 7D6      -0.094000
      8 C03          1.4200    -1.2030    -0.7140 ca         1 7D6      -0.100000
      9 C04          0.6860    -0.0880    -0.2760 ca         1 7D6      -0.028000
     10 C05          1.3610     1.0200     0.2660 ca         1 7D6      -0.045000
     11 C06          2.7650     1.0090     0.3690 ca         1 7D6      -0.037000
     12 C07         -0.7180    -0.0760    -0.3790 ca         1 7D6      -0.081000
     13 C08         -1.4780     1.0360     0.0590 ca         1 7D6      -0.102300
     14 C09         -0.7770     2.1430     0.5960 ca         1 7D6      -0.097000
     15 C11          5.0260    -0.0800     0.0610 c          1 7D6       0.609700
     16 O13          5.6240     0.8790     0.5310 o          1 7D6      -0.604100
     17 C14         -3.0210     1.0450    -0.0610 c5         1 7D6       0.310600
     18 C16         -4.0230    -0.6190    -1.7340 c5         1 7D6       0.074600
     19 N17         -4.0030    -1.1160    -0.3880 na         1 7D6      -0.161500
     20 C18         -3.4800    -0.2630     0.4760 cd         1 7D6      -0.270300
     21 C19         -4.6700    -2.0930     0.3300 cd         1 7D6       0.409400
     22 N20         -4.5420    -1.8260     1.6390 nc         1 7D6      -0.679000
     23 O23         -3.6460     2.1850     0.5080 oh         1 7D6      -0.652000
     24 H101         1.1360     3.0000     1.1170 ha         1 7D6       0.121000
     25 H121         5.1530    -1.9520    -0.7570 hn         1 7D6       0.316500
     26 H152        -4.1550     1.5960    -1.9190 hc         1 7D6       0.072200
     27 H151        -2.5530     0.9890    -2.2760 hc         1 7D6       0.072200
     28 H211        -3.6620    -0.1580     2.6840 h4         1 7D6       0.041100
     29 H221         7.6360    -0.5540    -0.9300 h1         1 7D6       0.041033
     30 H222         7.5100    -1.2770     0.7040 h1         1 7D6       0.041033
     31 H223         7.4430    -2.3240    -0.7460 h1         1 7D6       0.041033
     32 H021         3.3520    -2.0990    -0.9620 ha         1 7D6       0.111000
     33 H031         0.9060    -2.0650    -1.1350 ha         1 7D6       0.119000
     34 H061         3.2740     1.8740     0.7900 ha         1 7D6       0.139000
     35 H071        -1.2170    -0.9430    -0.8040 ha         1 7D6       0.127000
     36 H091        -1.3100     3.0290     0.9340 ha         1 7D6       0.128000
     37 H161        -5.0490    -0.6030    -2.1260 h1         1 7D6       0.065700
     38 H162        -3.4130    -1.2590    -2.3840 h1         1 7D6       0.065700
     39 H191        -5.2260    -2.8980    -0.1370 h5         1 7D6       0.058100
     40 H231        -3.4680     2.1330     1.4700 ho         1 7D6       0.458000
@<TRIPOS>BOND
     1     1    10 ar  
     2     1    14 ar  
     3     1    24 1   
     4     2     5 1   
     5     2    15 1   
     6     2    25 1   
     7     3    17 1   
     8     3    18 1   
     9     3    26 1   
    10     3    27 1   
    11     4    20 2   
    12     4    22 1   
    13     4    28 1   
    14     5    29 1   
    15     5    30 1   
    16     5    31 1   
    17     6     7 ar  
    18     6    11 ar  
    19     6    15 1   
    20     7     8 ar  
    21     7    32 1   
    22     8     9 ar  
    23     8    33 1   
    24     9    10 ar  
    25     9    12 ar  
    26    10    11 ar  
    27    11    34 1   
    28    12    13 ar  
    29    12    35 1   
    30    13    14 ar  
    31    13    17 1   
    32    14    36 1   
    33    15    16 2   
    34    17    20 1   
    35    17    23 1   
    36    18    19 1   
    37    18    37 1   
    38    18    38 1   
    39    19    20 1   
    40    19    21 1   
    41    21    22 2   
    42    21    39 1   
    43    23    40 1   
@<TRIPOS>SUBSTRUCTURE
     1 7D6         1 TEMP              0 ****  ****    0 ROOT
