@<TRIPOS>MOLECULE
7D7
   31    33     1     0     0
SMALL
No Charge or Current Charge


@<TRIPOS>ATOM
      1 O01          1.7750    -0.9020    -0.8550 oq         1 7D7      -0.430000
      2 C02          2.9420    -0.0720    -0.4990 cy         1 7D7       0.155300
      3 C03          4.1800    -0.8750    -0.0400 c3         1 7D7       0.159600
      4 O04          4.8700    -1.5070    -1.1340 oh         1 7D7      -0.707000
      5 C05          2.0210     0.5990     0.5670 cy         1 7D7      -0.137700
      6 C06          2.2130     2.0830     0.8860 c3         1 7D7       0.173600
      7 O07          3.4330     2.2990     1.6020 oh         1 7D7      -0.661000
      8 C08          0.8950     0.1970    -0.4380 cy         1 7D7       0.298300
      9 N09         -0.3990    -0.2620     0.0210 na         1 7D7      -0.292300
     10 C10         -0.6380    -0.9810     1.1980 cc         1 7D7       0.417700
     11 N11         -1.9570    -1.1260     1.4300 nd         1 7D7      -0.554100
     12 C12         -2.5470    -0.4490     0.3590 ca         1 7D7      -0.098600
     13 C13         -3.9110    -0.2520     0.0620 ca         1 7D7       0.452900
     14 N14         -4.9100    -0.7400     0.8450 nv         1 7D7      -1.064900
     15 N15         -4.2940     0.4300    -1.0290 nb         1 7D7      -0.302000
     16 C16         -3.2960     0.9140    -1.8080 ca         1 7D7       0.184900
     17 N17         -1.9640     0.7750    -1.5990 nb         1 7D7      -0.227000
     18 C18         -1.6150     0.0810    -0.4980 ca         1 7D7       0.134500
     19 H1           3.2120     0.6030    -1.3220 h1         1 7D7       0.085700
     20 H2           4.8530    -0.1800     0.4810 h1         1 7D7       0.029200
     21 H3           3.8470    -1.6250     0.6890 h1         1 7D7       0.029200
     22 H4           5.6190    -2.0180    -0.7450 ho         1 7D7       0.507000
     23 H5           1.9890     0.0440     1.5100 hc         1 7D7       0.088700
     24 H6           2.2160     2.6460    -0.0580 h1         1 7D7       0.032700
     25 H7           1.3530     2.4200     1.4800 h1         1 7D7       0.032700
     26 H8           3.4860     3.2620     1.7940 ho         1 7D7       0.451000
     27 H9           0.7110     0.8960    -1.2630 h2         1 7D7       0.107700
     28 H10          0.1630    -1.3620     1.8200 h5         1 7D7       0.070800
     29 H11         -4.6450    -1.4370     1.5370 hn         1 7D7       0.507500
     30 H12         -5.8370    -0.8330     0.4390 hn         1 7D7       0.507500
     31 H13         -3.5940     1.4700    -2.6950 h5         1 7D7       0.046100
@<TRIPOS>BOND
     1     1     2 1   
     2     1     8 1   
     3     2     3 1   
     4     2     5 1   
     5     2    19 1   
     6     3     4 1   
     7     3    20 1   
     8     3    21 1   
     9     4    22 1   
    10     5     6 1   
    11     5     8 1   
    12     5    23 1   
    13     6     7 1   
    14     6    24 1   
    15     6    25 1   
    16     7    26 1   
    17     8     9 1   
    18     8    27 1   
    19     9    10 1   
    20     9    18 1   
    21    10    11 2   
    22    10    28 1   
    23    11    12 1   
    24    12    13 ar  
    25    12    18 ar  
    26    13    14 1   
    27    13    15 ar  
    28    14    29 1   
    29    14    30 1   
    30    15    16 ar  
    31    16    17 ar  
    32    16    31 1   
    33    17    18 ar  
@<TRIPOS>SUBSTRUCTURE
     1 7D7         1 TEMP              0 ****  ****    0 ROOT
