@<TRIPOS>MOLECULE
7D7
   31    33     1     0     0
SMALL
bcc


@<TRIPOS>ATOM
      1 O01          1.8500    -0.5910    -1.1530 oq         1 7D7      -0.383600
      2 C02          2.9430    -0.0200    -0.3950 cy         1 7D7       0.132100
      3 C03          3.6930    -1.0240     0.4340 c3         1 7D7       0.136400
      4 O04          4.4070    -1.8820    -0.4210 oh         1 7D7      -0.584800
      5 C05          1.9750     0.9040     0.3480 cy         1 7D7      -0.137700
      6 C06          2.2420     2.3870     0.3150 c3         1 7D7       0.150400
      7 O07          3.3930     2.6290     1.0890 oh         1 7D7      -0.598800
      8 C08          0.9430     0.3710    -0.6500 cy         1 7D7       0.245800
      9 N09         -0.2570    -0.2290    -0.1410 na         1 7D7      -0.263000
     10 C10         -0.3530    -1.3070     0.6990 cc         1 7D7       0.417700
     11 N11         -1.5770    -1.6270     0.9900 nd         1 7D7      -0.554100
     12 C12         -2.3400    -0.7110     0.3100 ca         1 7D7      -0.229200
     13 C13         -3.7290    -0.5110     0.2060 ca         1 7D7       0.781200
     14 N14         -4.6190    -1.2770     0.8390 nv         1 7D7      -0.954500
     15 N15         -4.1600     0.4980    -0.5590 nb         1 7D7      -0.828000
     16 C16         -3.2710     1.2620    -1.1870 ca         1 7D7       0.710900
     17 N17         -1.9520     1.1730    -1.1680 nb         1 7D7      -0.753000
     18 C18         -1.5400     0.1650    -0.4030 ca         1 7D7       0.462800
     19 H1           3.6340     0.5140    -1.0570 h1         1 7D7       0.085700
     20 H2           4.3530    -0.4580     1.1050 h1         1 7D7       0.029200
     21 H3           2.9880    -1.5740     1.0720 h1         1 7D7       0.029200
     22 H4           4.8890    -2.5140     0.1190 ho         1 7D7       0.408000
     23 H5           1.7760     0.5750     1.3730 hc         1 7D7       0.088700
     24 H6           2.3770     2.7080    -0.7260 h1         1 7D7       0.032700
     25 H7           1.3640     2.9210     0.7030 h1         1 7D7       0.032700
     26 H8           3.6070     3.5650     1.0270 ho         1 7D7       0.412000
     27 H9           0.6300     1.1010    -1.4040 h2         1 7D7       0.107700
     28 H10          0.5220    -1.8280     1.0580 h5         1 7D7       0.070800
     29 H11         -4.3280    -2.0640     1.3910 hn         1 7D7       0.452300
     30 H12         -5.6040    -1.1180     0.7160 hn         1 7D7       0.452300
     31 H13         -3.6870     2.0600    -1.7920 h5         1 7D7       0.046100
@<TRIPOS>BOND
     1     1     2 1   
     2     1     8 1   
     3     2     3 1   
     4     2     5 1   
     5     2    19 1   
     6     3     4 1   
     7     3    20 1   
     8     3    21 1   
     9     4    22 1   
    10     5     6 1   
    11     5     8 1   
    12     5    23 1   
    13     6     7 1   
    14     6    24 1   
    15     6    25 1   
    16     7    26 1   
    17     8     9 1   
    18     8    27 1   
    19     9    10 1   
    20     9    18 1   
    21    10    11 2   
    22    10    28 1   
    23    11    12 1   
    24    12    13 ar  
    25    12    18 ar  
    26    13    14 1   
    27    13    15 ar  
    28    14    29 1   
    29    14    30 1   
    30    15    16 ar  
    31    16    17 ar  
    32    16    31 1   
    33    17    18 ar  
@<TRIPOS>SUBSTRUCTURE
     1 7D7         1 TEMP              0 ****  ****    0 ROOT
