@<TRIPOS>MOLECULE
7D8
   25    26     1     0     0
SMALL
abcg2


@<TRIPOS>ATOM
      1 OAJ         -0.4920    -1.5870     0.8990 oh         1 7D8      -0.665000
      2 CAA         -0.3940    -0.8550    -0.3030 c6         1 7D8       0.220300
      3 CAB          1.0790    -0.6010    -0.6420 c6         1 7D8       0.106300
      4 OAK          1.7040    -1.8630    -0.6650 oh         1 7D8      -0.668000
      5 CAC          1.6780     0.3240     0.4010 c6         1 7D8       0.156300
      6 FAF          3.0620     0.4110     0.1880 f          1 7D8      -0.278000
      7 CAD          1.0850     1.7160     0.3240 c6         1 7D8      -0.069400
      8 CAG         -0.4280     1.7040     0.1880 cx         1 7D8      -0.113700
      9 CAI         -1.0510     1.5010    -1.1620 cx         1 7D8      -0.115400
     10 CAH         -1.1730     0.4320    -0.1210 cx         1 7D8      -0.099000
     11 CAL         -2.5350     0.2750     0.5020 c3         1 7D8       0.201600
     12 OAM         -3.3300    -0.5280    -0.3420 oh         1 7D8      -0.659000
     13 H1           0.0480    -2.3800     0.8070 ho         1 7D8       0.463000
     14 H2          -0.8370    -1.4250    -1.1320 h1         1 7D8       0.064700
     15 H3           1.1490    -0.1210    -1.6290 h1         1 7D8       0.051700
     16 H4           2.6520    -1.7400    -0.7810 ho         1 7D8       0.463000
     17 H5           1.5430    -0.1030     1.3980 h1         1 7D8       0.079700
     18 H6           1.3690     2.2750     1.2170 hc         1 7D8       0.060200
     19 H7           1.5310     2.2370    -0.5290 hc         1 7D8       0.060200
     20 H8          -0.9420     2.3980     0.8440 hc         1 7D8       0.083700
     21 H9          -1.9430     2.0640    -1.4100 hc         1 7D8       0.077200
     22 H10         -0.3900     1.3480    -2.0070 hc         1 7D8       0.077200
     23 H11         -2.4450    -0.1600     1.5030 h1         1 7D8       0.028700
     24 H12         -2.9750     1.2730     0.6340 h1         1 7D8       0.028700
     25 H13         -4.1180    -0.7860     0.1440 ho         1 7D8       0.444000
@<TRIPOS>BOND
     1     1     2 1   
     2     1    13 1   
     3     2     3 1   
     4     2    10 1   
     5     2    14 1   
     6     3     4 1   
     7     3     5 1   
     8     3    15 1   
     9     4    16 1   
    10     5     6 1   
    11     5     7 1   
    12     5    17 1   
    13     7     8 1   
    14     7    18 1   
    15     7    19 1   
    16     8     9 1   
    17     8    10 1   
    18     8    20 1   
    19     9    10 1   
    20     9    21 1   
    21     9    22 1   
    22    10    11 1   
    23    11    12 1   
    24    11    23 1   
    25    11    24 1   
    26    12    25 1   
@<TRIPOS>SUBSTRUCTURE
     1 7D8         1 TEMP              0 ****  ****    0 ROOT
