@<TRIPOS>MOLECULE
7D8
   25    26     1     0     0
SMALL
No Charge or Current Charge


@<TRIPOS>ATOM
      1 OAJ         -0.4680    -1.6640     0.9460 oh         1 7D8      -0.665000
      2 CAA         -0.4090    -0.8920    -0.2640 c6         1 7D8       0.220300
      3 CAB          1.0960    -0.6770    -0.6240 c6         1 7D8       0.106300
      4 OAK          1.7940    -1.9440    -0.6150 oh         1 7D8      -0.668000
      5 CAC          1.7450     0.3250     0.3760 c6         1 7D8       0.156300
      6 FAF          3.1170     0.4530     0.0630 f          1 7D8      -0.278000
      7 CAD          1.1050     1.7330     0.3090 c6         1 7D8      -0.069400
      8 CAG         -0.4350     1.7110     0.2320 cx         1 7D8      -0.113700
      9 CAI         -1.0690     1.5260    -1.1310 cx         1 7D8      -0.115400
     10 CAH         -1.2060     0.4350    -0.0880 cx         1 7D8      -0.099000
     11 CAL         -2.6150     0.2340     0.4880 c3         1 7D8       0.201600
     12 OAM         -3.4580    -0.4590    -0.4430 oh         1 7D8      -0.659000
     13 H1           0.2670    -2.3120     0.8400 ho         1 7D8       0.463000
     14 H2          -0.8780    -1.4530    -1.0870 h1         1 7D8       0.064700
     15 H3           1.1540    -0.2400    -1.6310 h1         1 7D8       0.051700
     16 H4           2.7450    -1.7400    -0.7660 ho         1 7D8       0.463000
     17 H5           1.6720    -0.0680     1.4010 h1         1 7D8       0.079700
     18 H6           1.4170     2.3120     1.1890 hc         1 7D8       0.060200
     19 H7           1.4920     2.2760    -0.5640 hc         1 7D8       0.060200
     20 H8          -0.9090     2.4360     0.8920 hc         1 7D8       0.083700
     21 H9          -1.9450     2.1280    -1.3600 hc         1 7D8       0.077200
     22 H10         -0.4220     1.3480    -1.9860 hc         1 7D8       0.077200
     23 H11         -2.5600    -0.3130     1.4380 h1         1 7D8       0.028700
     24 H12         -3.0510     1.2160     0.7170 h1         1 7D8       0.028700
     25 H13         -4.3320    -0.5640    -0.0070 ho         1 7D8       0.444000
@<TRIPOS>BOND
     1     1     2 1   
     2     1    13 1   
     3     2     3 1   
     4     2    10 1   
     5     2    14 1   
     6     3     4 1   
     7     3     5 1   
     8     3    15 1   
     9     4    16 1   
    10     5     6 1   
    11     5     7 1   
    12     5    17 1   
    13     7     8 1   
    14     7    18 1   
    15     7    19 1   
    16     8     9 1   
    17     8    10 1   
    18     8    20 1   
    19     9    10 1   
    20     9    21 1   
    21     9    22 1   
    22    10    11 1   
    23    11    12 1   
    24    11    23 1   
    25    11    24 1   
    26    12    25 1   
@<TRIPOS>SUBSTRUCTURE
     1 7D8         1 TEMP              0 ****  ****    0 ROOT
