@<TRIPOS>MOLECULE
7DB
   98   101     1     0     0
SMALL
No Charge or Current Charge


@<TRIPOS>ATOM
      1 C4          99.5650    92.6950     9.8880 c6         1 7DB       0.118300
      2 C5          99.3810    92.6550     8.3320 c6         1 7DB       0.141300
      3 C6          98.2610    91.6690     7.8630 c3         1 7DB       0.166600
      4 C3         100.7020    93.7090    10.2160 c6         1 7DB       0.135300
      5 O2         101.4950    96.0060     9.8540 oh         1 7DB      -0.714000
      6 C2         100.4030    95.1040     9.5790 c6         1 7DB       0.145300
      7 O3         100.8490    93.8320    11.6410 oh         1 7DB      -0.652000
      8 O4          98.3610    93.0900    10.5890 oh         1 7DB      -0.694000
      9 O6          98.1410    91.5880     6.4290 oh         1 7DB      -0.711000
     10 O5          99.0850    93.9810     7.8200 os         1 7DB      -0.440000
     11 C1         100.1430    94.9430     8.0450 c6         1 7DB       0.176300
     12 CBQ         99.7050    96.2680     7.3600 c3         1 7DB      -0.091400
     13 CBE         99.4520    96.1370     5.8440 c3         1 7DB       0.108000
     14 NAA         99.0720    97.4150     5.2340 ns         1 7DB      -0.503900
     15 C           99.9510    98.4260     4.8990 c          1 7DB       0.584100
     16 O          101.1560    98.3060     5.0740 o          1 7DB      -0.614100
     17 CA          99.3190    99.7220     4.3030 c3         1 7DB       0.023700
     18 N           97.8340    99.6620     4.2650 ns         1 7DB      -0.514900
     19 CBS         97.0700    99.7890     3.1220 c          1 7DB       0.597100
     20 OBV         97.5680    99.8390     2.0070 o          1 7DB      -0.574100
     21 CBT         95.5580    99.8650     3.3630 c3         1 7DB      -0.103100
     22 CBU         95.0620   101.3080     3.3200 ca         1 7DB      -0.089300
     23 CBW         95.4380   102.2170     4.3290 ca         1 7DB      -0.089500
     24 CBX         94.9680   103.5410     4.3030 ca         1 7DB      -0.103500
     25 CBY         94.1180   103.9670     3.2680 ca         1 7DB      -0.109000
     26 CBZ         93.7410   103.0660     2.2580 ca         1 7DB      -0.103500
     27 CCA         94.2130   101.7420     2.2820 ca         1 7DB      -0.089500
     28 CB          99.7750   100.9940     5.0630 c3         1 7DB      -0.086700
     29 CG          99.2810   102.2890     4.4660 cc         1 7DB       0.146300
     30 CD1         99.1050   102.6000     3.1530 cd         1 7DB      -0.141000
     31 ND2         98.9620   103.3530     5.2600 nc         1 7DB      -0.397000
     32 NAJ         98.5870   104.3450     4.4920 nd         1 7DB      -0.216800
     33 NAI         98.6600   103.9030     3.1870 na         1 7DB       0.163800
     34 CAR         98.3620   104.7520     1.9890 c6         1 7DB       0.166000
     35 CBA         99.7510   105.2900     1.4200 c          1 7DB       0.707000
     36 OBC        100.6360   105.5290     2.2340 o          1 7DB      -0.678000
     37 OBB        100.0620   104.9320     0.2860 o          1 7DB      -0.678000
     38 OAS         97.6860   103.8540     1.0480 os         1 7DB      -0.448000
     39 CAQ         97.3600   105.9010     2.3690 c6         1 7DB      -0.118400
     40 CAP         96.6530   106.5330     1.1430 c6         1 7DB       0.161300
     41 OBD         95.6710   107.4810     1.5850 oh         1 7DB      -0.680000
     42 CAO         95.9970   105.4300     0.2560 c6         1 7DB       0.072700
     43 NAN         95.2750   106.0170    -0.8950 ns         1 7DB      -0.476900
     44 CAL         94.2180   105.4350    -1.5510 c          1 7DB       0.599100
     45 OAM         93.8220   104.3110    -1.2720 o          1 7DB      -0.650100
     46 CAK         93.5910   106.2800    -2.6490 c3         1 7DB      -0.172100
     47 CAT         97.1530   104.4800    -0.1510 c6         1 7DB       0.140300
     48 CAU         96.8430   103.3520    -1.1910 c3         1 7DB       0.154300
     49 OAZ         95.7190   102.5360    -0.8020 oh         1 7DB      -0.734000
     50 CAV         98.1070   102.4600    -1.4620 c3         1 7DB       0.188300
     51 OAY         99.2530   103.2900    -1.7980 oh         1 7DB      -0.705000
     52 CAW         97.8560   101.4100    -2.5930 c3         1 7DB       0.165600
     53 OAX         98.9740   100.5110    -2.7540 oh         1 7DB      -0.709000
     54 H1          99.8820    91.6970    10.2250 h1         1 7DB       0.029700
     55 H2         100.3240    92.3120     7.8790 h1         1 7DB       0.053700
     56 H3          98.4860    90.6760     8.2750 h1         1 7DB       0.028700
     57 H4          97.3060    91.9940     8.2970 h1         1 7DB       0.028700
     58 H5         101.6370    93.3250     9.7800 h1         1 7DB       0.043700
     59 H6         101.7780    95.7880    10.7750 ho         1 7DB       0.516000
     60 H7          99.4780    95.4940    10.0310 h1         1 7DB       0.075700
     61 H8          99.9370    93.6970    11.9890 ho         1 7DB       0.441000
     62 H9          97.7160    92.3490    10.5160 ho         1 7DB       0.496000
     63 H10         97.3680    91.0080     6.2370 ho         1 7DB       0.502000
     64 H11        101.0590    94.5820     7.5540 h1         1 7DB       0.047700
     65 H12        100.4790    97.0280     7.5180 hc         1 7DB       0.067200
     66 H13         98.7960    96.6490     7.8400 hc         1 7DB       0.067200
     67 H14         98.6450    95.4140     5.6650 h1         1 7DB       0.060700
     68 H15        100.3560    95.7580     5.3490 h1         1 7DB       0.060700
     69 H16         98.0940    97.5840     5.0290 hn         1 7DB       0.319500
     70 H17         99.7020    99.7750     3.2760 h1         1 7DB       0.116700
     71 H18         97.3290    99.6750     5.1450 hn         1 7DB       0.307500
     72 H19         95.0530    99.2710     2.5920 hc         1 7DB       0.055700
     73 H20         95.3220    99.4520     4.3510 hc         1 7DB       0.055700
     74 H21         96.0940   101.9010     5.1360 ha         1 7DB       0.111000
     75 H22         95.2650   104.2370     5.0840 ha         1 7DB       0.117000
     76 H23         93.7570   104.9920     3.2470 ha         1 7DB       0.113000
     77 H24         93.0860   103.3940     1.4540 ha         1 7DB       0.117000
     78 H25         93.9160   101.0560     1.4930 ha         1 7DB       0.111000
     79 H26        100.8710   101.0210     5.0880 hc         1 7DB       0.065200
     80 H27         99.4470   100.9180     6.1070 hc         1 7DB       0.065200
     81 H28         99.2530   102.0340     2.2440 h4         1 7DB       0.190000
     82 H30         97.8870   106.6770     2.9410 hc         1 7DB       0.075700
     83 H31         96.5870   105.5010     3.0380 hc         1 7DB       0.075700
     84 H32         97.4130   107.0530     0.5380 h1         1 7DB       0.048700
     85 H33         96.1530   108.2020     2.0470 ho         1 7DB       0.444000
     86 H34         95.2780   104.8680     0.8670 h1         1 7DB       0.099700
     87 H35         95.5040   106.9660    -1.1670 hn         1 7DB       0.315500
     88 H36         92.7590   105.7720    -3.1490 hc         1 7DB       0.057700
     89 H37         93.2840   107.2430    -2.2270 hc         1 7DB       0.057700
     90 H38         94.3710   106.5760    -3.3610 hc         1 7DB       0.057700
     91 H39         97.9120   105.1130    -0.6240 h1         1 7DB       0.073700
     92 H40         96.5980   103.8530    -2.1370 h1         1 7DB       0.022700
     93 H41         94.9160   103.1240    -0.9110 ho         1 7DB       0.528000
     94 H42         98.3170   101.8970    -0.5410 h1         1 7DB       0.074700
     95 H43         99.5120   103.7960    -0.9770 ho         1 7DB       0.513000
     96 H44         97.6570   101.9410    -3.5340 h1         1 7DB       0.020700
     97 H45         96.9560   100.8290    -2.3510 h1         1 7DB       0.020700
     98 H46         98.7660    99.9330    -3.5240 ho         1 7DB       0.479000
@<TRIPOS>BOND
     1     1     2 1   
     2     1     4 1   
     3     1     8 1   
     4     1    54 1   
     5     2     3 1   
     6     2    10 1   
     7     2    55 1   
     8     3     9 1   
     9     3    56 1   
    10     3    57 1   
    11     4     6 1   
    12     4     7 1   
    13     4    58 1   
    14     5     6 1   
    15     5    59 1   
    16     6    11 1   
    17     6    60 1   
    18     7    61 1   
    19     8    62 1   
    20     9    63 1   
    21    10    11 1   
    22    11    12 1   
    23    11    64 1   
    24    12    13 1   
    25    12    65 1   
    26    12    66 1   
    27    13    14 1   
    28    13    67 1   
    29    13    68 1   
    30    14    15 1   
    31    14    69 1   
    32    15    16 2   
    33    15    17 1   
    34    17    18 1   
    35    17    28 1   
    36    17    70 1   
    37    18    19 1   
    38    18    71 1   
    39    19    20 2   
    40    19    21 1   
    41    21    22 1   
    42    21    72 1   
    43    21    73 1   
    44    22    23 ar  
    45    22    27 ar  
    46    23    24 ar  
    47    23    74 1   
    48    24    25 ar  
    49    24    75 1   
    50    25    26 ar  
    51    25    76 1   
    52    26    27 ar  
    53    26    77 1   
    54    27    78 1   
    55    28    29 1   
    56    28    79 1   
    57    28    80 1   
    58    29    30 2   
    59    29    31 1   
    60    30    33 1   
    61    30    81 1   
    62    31    32 2   
    63    32    33 1   
    64    33    34 1   
    65    34    35 1   
    66    34    38 1   
    67    34    39 1   
    68    35    36 1   
    69    35    37 1   
    70    38    47 1   
    71    39    40 1   
    72    39    82 1   
    73    39    83 1   
    74    40    41 1   
    75    40    42 1   
    76    40    84 1   
    77    41    85 1   
    78    42    43 1   
    79    42    47 1   
    80    42    86 1   
    81    43    44 1   
    82    43    87 1   
    83    44    45 2   
    84    44    46 1   
    85    46    88 1   
    86    46    89 1   
    87    46    90 1   
    88    47    48 1   
    89    47    91 1   
    90    48    49 1   
    91    48    50 1   
    92    48    92 1   
    93    49    93 1   
    94    50    51 1   
    95    50    52 1   
    96    50    94 1   
    97    51    95 1   
    98    52    53 1   
    99    52    96 1   
   100    52    97 1   
   101    53    98 1   
@<TRIPOS>SUBSTRUCTURE
     1 7DB         1 TEMP              0 ****  ****    0 ROOT
