@<TRIPOS>MOLECULE
7DB
   98   101     1     0     0
SMALL
abcg2


@<TRIPOS>ATOM
      1 C4          99.8470    92.7770     9.8270 c6         1 7DB       0.118300
      2 C5          99.5210    92.7050     8.3280 c6         1 7DB       0.141300
      3 C6          98.4470    91.6870     8.0200 c3         1 7DB       0.166600
      4 C3         100.9000    93.8660    10.0280 c6         1 7DB       0.135300
      5 O2         101.4800    96.1620     9.5210 oh         1 7DB      -0.714000
      6 C2         100.4390    95.1910     9.4390 c6         1 7DB       0.145300
      7 O3         101.2200    94.1000    11.3980 oh         1 7DB      -0.652000
      8 O4          98.6980    93.0910    10.6130 oh         1 7DB      -0.694000
      9 O6          98.4000    91.4780     6.6080 oh         1 7DB      -0.711000
     10 O5          99.0820    93.9750     7.8510 os         1 7DB      -0.440000
     11 C1         100.0670    95.0000     7.9670 c6         1 7DB       0.176300
     12 CBQ         99.5050    96.2610     7.3410 c3         1 7DB      -0.091400
     13 CBE         99.2300    96.1040     5.8460 c3         1 7DB       0.108000
     14 NAA         98.7620    97.3470     5.2500 ns         1 7DB      -0.503900
     15 C           99.5910    98.3050     4.8190 c          1 7DB       0.584100
     16 O          100.8190    98.1950     4.8150 o          1 7DB      -0.614100
     17 CA          98.9460    99.5970     4.2980 c3         1 7DB       0.023700
     18 N           97.5020    99.6210     4.4060 ns         1 7DB      -0.514900
     19 CBS         96.6680    99.6260     3.3390 c          1 7DB       0.597100
     20 OBV         97.0570    99.4910     2.1820 o          1 7DB      -0.574100
     21 CBT         95.1970    99.8280     3.6740 c3         1 7DB      -0.103100
     22 CBU         94.7700   101.2570     3.4240 ca         1 7DB      -0.089300
     23 CBW         95.1380   102.2730     4.3090 ca         1 7DB      -0.089500
     24 CBX         94.7430   103.5850     4.0830 ca         1 7DB      -0.103500
     25 CBY         93.9770   103.9030     2.9650 ca         1 7DB      -0.109000
     26 CBZ         93.6130   102.9010     2.0750 ca         1 7DB      -0.103500
     27 CCA         94.0080   101.5860     2.3040 ca         1 7DB      -0.089500
     28 CB          99.5660   100.8090     5.0100 c3         1 7DB      -0.086700
     29 CG          99.1110   102.1070     4.4320 cc         1 7DB       0.146300
     30 CD1         98.9570   102.4820     3.1170 cd         1 7DB      -0.141000
     31 ND2         98.7630   103.1700     5.2080 nc         1 7DB      -0.397000
     32 NAJ         98.4110   104.1710     4.4440 nd         1 7DB      -0.216800
     33 NAI         98.5200   103.7590     3.1750 na         1 7DB       0.163800
     34 CAR         98.2770   104.6460     2.0330 c6         1 7DB       0.166000
     35 CBA         99.7120   105.1230     1.5470 c          1 7DB       0.707000
     36 OBC        100.1730   106.1200     2.1270 o          1 7DB      -0.678000
     37 OBB        100.2590   104.4190     0.6650 o          1 7DB      -0.678000
     38 OAS         97.6510   103.8080     1.0880 os         1 7DB      -0.448000
     39 CAQ         97.3450   105.7850     2.4260 c6         1 7DB      -0.118400
     40 CAP         96.8130   106.5190     1.1980 c6         1 7DB       0.161300
     41 OBD         95.7840   107.4340     1.5680 oh         1 7DB      -0.680000
     42 CAO         96.2250   105.5340     0.1920 c6         1 7DB       0.072700
     43 NAN         95.7880   106.2380    -1.0010 ns         1 7DB      -0.476900
     44 CAL         94.7090   105.8910    -1.7200 c          1 7DB       0.599100
     45 OAM         94.0270   104.8880    -1.4560 o          1 7DB      -0.650100
     46 CAK         94.3580   106.7800    -2.8830 c3         1 7DB      -0.172100
     47 CAT         97.2940   104.4770    -0.1220 c6         1 7DB       0.140300
     48 CAU         96.8840   103.4090    -1.1320 c3         1 7DB       0.154300
     49 OAZ         95.6650   102.7670    -0.7850 oh         1 7DB      -0.734000
     50 CAV         97.9680   102.3210    -1.2450 c3         1 7DB       0.188300
     51 OAY         99.2660   102.8800    -1.3780 oh         1 7DB      -0.705000
     52 CAW         97.7030   101.4470    -2.4520 c3         1 7DB       0.165600
     53 OAX         98.5360   100.2860    -2.3840 oh         1 7DB      -0.709000
     54 H1         100.2690    91.8170    10.1430 h1         1 7DB       0.029700
     55 H2         100.4390    92.4160     7.7970 h1         1 7DB       0.053700
     56 H3          98.6910    90.7530     8.5390 h1         1 7DB       0.028700
     57 H4          97.4840    92.0500     8.3890 h1         1 7DB       0.028700
     58 H5         101.8000    93.5550     9.4860 h1         1 7DB       0.043700
     59 H6         101.8430    96.1070    10.4150 ho         1 7DB       0.516000
     60 H7          99.5550    95.5390     9.9850 h1         1 7DB       0.075700
     61 H8         101.8050    93.3960    11.7050 ho         1 7DB       0.441000
     62 H9          98.2270    92.2740    10.8130 ho         1 7DB       0.496000
     63 H10         97.6430    90.9130     6.4120 ho         1 7DB       0.502000
     64 H11        100.9730    94.6910     7.4250 h1         1 7DB       0.047700
     65 H12        100.2210    97.0700     7.4890 hc         1 7DB       0.067200
     66 H13         98.5820    96.5360     7.8600 hc         1 7DB       0.067200
     67 H14         98.4700    95.3450     5.6720 h1         1 7DB       0.060700
     68 H15        100.1400    95.7990     5.3290 h1         1 7DB       0.060700
     69 H16         97.7710    97.5300     5.2320 hn         1 7DB       0.319500
     70 H17         99.1830    99.6380     3.2340 h1         1 7DB       0.116700
     71 H18         97.1060    99.8190     5.3130 hn         1 7DB       0.307500
     72 H19         94.6260    99.1530     3.0380 hc         1 7DB       0.055700
     73 H20         95.0100    99.5570     4.7150 hc         1 7DB       0.055700
     74 H21         95.7350   102.0370     5.1820 ha         1 7DB       0.111000
     75 H22         95.0360   104.3610     4.7790 ha         1 7DB       0.117000
     76 H23         93.6750   104.9280     2.7870 ha         1 7DB       0.113000
     77 H24         93.0250   103.1400     1.1980 ha         1 7DB       0.117000
     78 H25         93.7200   100.8070     1.6090 ha         1 7DB       0.111000
     79 H26        100.6500   100.7170     4.9460 hc         1 7DB       0.065200
     80 H27         99.3000   100.7840     6.0690 hc         1 7DB       0.065200
     81 H28         99.1040   101.9670     2.1870 h4         1 7DB       0.190000
     82 H30         97.8630   106.4840     3.0760 hc         1 7DB       0.075700
     83 H31         96.4980   105.3640     2.9660 hc         1 7DB       0.075700
     84 H32         97.6290   107.0640     0.7070 h1         1 7DB       0.048700
     85 H33         96.1730   108.1220     2.1230 ho         1 7DB       0.444000
     86 H34         95.3560   105.0470     0.6330 h1         1 7DB       0.099700
     87 H35         96.3030   107.0600    -1.2780 hn         1 7DB       0.315500
     88 H36         94.3990   106.1890    -3.7990 hc         1 7DB       0.057700
     89 H37         93.3320   107.1290    -2.7580 hc         1 7DB       0.057700
     90 H38         95.0220   107.6380    -2.9770 hc         1 7DB       0.057700
     91 H39         98.1670   104.9920    -0.5300 h1         1 7DB       0.073700
     92 H40         96.7880   103.9080    -2.1030 h1         1 7DB       0.022700
     93 H41         94.9480   103.4160    -0.9340 ho         1 7DB       0.528000
     94 H42         97.9080   101.6990    -0.3440 h1         1 7DB       0.074700
     95 H43         99.5280   103.3400    -0.5490 ho         1 7DB       0.513000
     96 H44         97.9170   102.0230    -3.3600 h1         1 7DB       0.020700
     97 H45         96.6480   101.1620    -2.4590 h1         1 7DB       0.020700
     98 H46         98.3230    99.7210    -3.1360 ho         1 7DB       0.479000
@<TRIPOS>BOND
     1     1     2 1   
     2     1     4 1   
     3     1     8 1   
     4     1    54 1   
     5     2     3 1   
     6     2    10 1   
     7     2    55 1   
     8     3     9 1   
     9     3    56 1   
    10     3    57 1   
    11     4     6 1   
    12     4     7 1   
    13     4    58 1   
    14     5     6 1   
    15     5    59 1   
    16     6    11 1   
    17     6    60 1   
    18     7    61 1   
    19     8    62 1   
    20     9    63 1   
    21    10    11 1   
    22    11    12 1   
    23    11    64 1   
    24    12    13 1   
    25    12    65 1   
    26    12    66 1   
    27    13    14 1   
    28    13    67 1   
    29    13    68 1   
    30    14    15 1   
    31    14    69 1   
    32    15    16 2   
    33    15    17 1   
    34    17    18 1   
    35    17    28 1   
    36    17    70 1   
    37    18    19 1   
    38    18    71 1   
    39    19    20 2   
    40    19    21 1   
    41    21    22 1   
    42    21    72 1   
    43    21    73 1   
    44    22    23 ar  
    45    22    27 ar  
    46    23    24 ar  
    47    23    74 1   
    48    24    25 ar  
    49    24    75 1   
    50    25    26 ar  
    51    25    76 1   
    52    26    27 ar  
    53    26    77 1   
    54    27    78 1   
    55    28    29 1   
    56    28    79 1   
    57    28    80 1   
    58    29    30 2   
    59    29    31 1   
    60    30    33 1   
    61    30    81 1   
    62    31    32 2   
    63    32    33 1   
    64    33    34 1   
    65    34    35 1   
    66    34    38 1   
    67    34    39 1   
    68    35    36 1   
    69    35    37 1   
    70    38    47 1   
    71    39    40 1   
    72    39    82 1   
    73    39    83 1   
    74    40    41 1   
    75    40    42 1   
    76    40    84 1   
    77    41    85 1   
    78    42    43 1   
    79    42    47 1   
    80    42    86 1   
    81    43    44 1   
    82    43    87 1   
    83    44    45 2   
    84    44    46 1   
    85    46    88 1   
    86    46    89 1   
    87    46    90 1   
    88    47    48 1   
    89    47    91 1   
    90    48    49 1   
    91    48    50 1   
    92    48    92 1   
    93    49    93 1   
    94    50    51 1   
    95    50    52 1   
    96    50    94 1   
    97    51    95 1   
    98    52    53 1   
    99    52    96 1   
   100    52    97 1   
   101    53    98 1   
@<TRIPOS>SUBSTRUCTURE
     1 7DB         1 TEMP              0 ****  ****    0 ROOT
