@<TRIPOS>MOLECULE
7DE
   36    37     1     0     0
SMALL
bcc


@<TRIPOS>ATOM
      1 O21          5.7840    -1.0390     0.2330 o          1 7DE      -0.201000
      2 N19          4.6050    -1.2860     0.1550 no         1 7DE       0.314200
      3 O20          4.1410    -2.4000     0.2040 o          1 7DE      -0.201000
      4 C12          3.6830    -0.1680    -0.0070 ca         1 7DE      -0.170200
      5 C13          4.1920     1.1180    -0.1080 ca         1 7DE      -0.063000
      6 C11          2.3240    -0.4310    -0.0480 ca         1 7DE      -0.047000
      7 C3           1.4550     0.6360    -0.2050 ca         1 7DE       0.006800
      8 C2           1.9380     1.9330    -0.3300 ca         1 7DE      -0.094000
      9 C1           3.3030     2.1670    -0.2680 ca         1 7DE      -0.129000
     10 N4           0.0700     0.3790    -0.2690 na         1 7DE       0.159300
     11 C5          -0.9280     0.9990     0.3910 cc         1 7DE       0.013400
     12 C6          -0.7070     2.0860     1.3790 c3         1 7DE      -0.045800
     13 C7          -2.0900     0.3670    -0.0290 cd         1 7DE      -0.337900
     14 C8          -1.6670    -0.6410    -0.9390 cd         1 7DE       0.395600
     15 N10         -0.3630    -0.6160    -1.0660 nc         1 7DE      -0.523800
     16 C9          -2.4650    -1.6350    -1.7080 c3         1 7DE      -0.122400
     17 C14         -3.4370     0.7180     0.4060 c          1 7DE       0.698700
     18 O18         -3.7040     1.6390     1.1460 o          1 7DE      -0.559000
     19 O15         -4.3520    -0.0910    -0.1100 os         1 7DE      -0.421900
     20 C16         -5.7290     0.1480     0.2120 c3         1 7DE       0.145400
     21 C17         -6.5580    -0.8580    -0.5500 c3         1 7DE      -0.098100
     22 H13          5.2550     1.3060    -0.0740 ha         1 7DE       0.175000
     23 H11          1.9390    -1.4360     0.0430 ha         1 7DE       0.193000
     24 H2           1.2580     2.7580    -0.4910 ha         1 7DE       0.155000
     25 H1           3.6780     3.1760    -0.3650 ha         1 7DE       0.153000
     26 H61         -0.8010     3.0680     0.9150 hc         1 7DE       0.066700
     27 H62         -1.4460     2.0290     2.1720 hc         1 7DE       0.066700
     28 H63          0.2820     2.0200     1.8300 hc         1 7DE       0.066700
     29 H91         -3.1700    -1.1470    -2.3810 hc         1 7DE       0.057367
     30 H92         -1.8000    -2.2600    -2.3010 hc         1 7DE       0.057367
     31 H93         -3.0450    -2.2790    -1.0480 hc         1 7DE       0.057367
     32 H161        -6.0030     1.1670    -0.0660 h1         1 7DE       0.048200
     33 H162        -5.8780     0.0420     1.2890 h1         1 7DE       0.048200
     34 H171        -6.4300    -0.7470    -1.6260 hc         1 7DE       0.046700
     35 H172        -6.3040    -1.8810    -0.2720 hc         1 7DE       0.046700
     36 H173        -7.6120    -0.7010    -0.3200 hc         1 7DE       0.046700
@<TRIPOS>BOND
     1     1     2 1   
     2     2     3 1   
     3     2     4 1   
     4     4     5 ar  
     5     4     6 ar  
     6     5     9 ar  
     7     5    22 1   
     8     6     7 ar  
     9     6    23 1   
    10     7     8 ar  
    11     7    10 1   
    12     8     9 ar  
    13     8    24 1   
    14     9    25 1   
    15    10    11 1   
    16    10    15 1   
    17    11    12 1   
    18    11    13 2   
    19    12    26 1   
    20    12    27 1   
    21    12    28 1   
    22    13    14 1   
    23    13    17 1   
    24    14    15 2   
    25    14    16 1   
    26    16    29 1   
    27    16    30 1   
    28    16    31 1   
    29    17    18 2   
    30    17    19 1   
    31    19    20 1   
    32    20    21 1   
    33    20    32 1   
    34    20    33 1   
    35    21    34 1   
    36    21    35 1   
    37    21    36 1   
@<TRIPOS>SUBSTRUCTURE
     1 7DE         1 TEMP              0 ****  ****    0 ROOT
