@<TRIPOS>MOLECULE
7DE
   36    37     1     0     0
SMALL
No Charge or Current Charge


@<TRIPOS>ATOM
      1 O21          5.9410    -0.8840     0.5790 o          1 7DE      -0.391000
      2 N19          4.7400    -1.1810     0.5470 no         1 7DE       0.694200
      3 O20          4.3040    -2.3030     0.8390 o          1 7DE      -0.391000
      4 C12          3.7590    -0.1260     0.1360 ca         1 7DE      -0.170200
      5 C13          4.2020     1.1750    -0.2010 ca         1 7DE      -0.045000
      6 C11          2.3740    -0.4180     0.0780 ca         1 7DE      -0.029000
      7 C3           1.4480     0.5730    -0.3050 ca         1 7DE       0.006800
      8 C2           1.9060     1.8610    -0.6440 ca         1 7DE      -0.076000
      9 C1           3.2770     2.1600    -0.5890 ca         1 7DE      -0.111000
     10 N4           0.0860     0.2730    -0.3560 na         1 7DE       0.210000
     11 C5          -0.8820     0.8900     0.4290 cc         1 7DE      -0.037300
     12 C6          -0.6390     1.9140     1.5140 c3         1 7DE      -0.045800
     13 C7          -2.0410     0.3100    -0.0350 cd         1 7DE      -0.272600
     14 C8          -1.6660    -0.6100    -1.0560 cd         1 7DE       0.330300
     15 N10         -0.3640    -0.6430    -1.2690 nc         1 7DE      -0.523800
     16 C9          -2.5570    -1.5010    -1.8810 c3         1 7DE      -0.122400
     17 C14         -3.4020     0.6220     0.4680 c          1 7DE       0.649700
     18 O18         -3.6180     1.4450     1.3480 o          1 7DE      -0.510000
     19 O15         -4.4040    -0.0840    -0.1400 os         1 7DE      -0.445100
     20 C16         -5.7590     0.1510     0.2770 c3         1 7DE       0.168600
     21 C17         -6.6610    -0.7660    -0.5630 c3         1 7DE      -0.098100
     22 H13          5.2600     1.4320    -0.1670 ha         1 7DE       0.157000
     23 H11          2.0050    -1.4110     0.3310 ha         1 7DE       0.175000
     24 H2           1.1980     2.6290    -0.9500 ha         1 7DE       0.137000
     25 H1           3.6250     3.1570    -0.8500 ha         1 7DE       0.135000
     26 H61         -0.9970     2.9030     1.2030 hc         1 7DE       0.066700
     27 H62         -1.1650     1.6390     2.4360 hc         1 7DE       0.066700
     28 H63          0.4230     2.0050     1.7660 hc         1 7DE       0.066700
     29 H91         -3.2770    -0.9080    -2.4570 hc         1 7DE       0.057367
     30 H92         -1.9810    -2.1040    -2.5930 hc         1 7DE       0.057367
     31 H93         -3.1180    -2.1920    -1.2420 hc         1 7DE       0.057367
     32 H161        -6.0450     1.1990     0.1110 h1         1 7DE       0.048200
     33 H162        -5.8880    -0.0830     1.3430 h1         1 7DE       0.048200
     34 H171        -6.5550    -0.5390    -1.6300 hc         1 7DE       0.046700
     35 H172        -6.3990    -1.8180    -0.4010 hc         1 7DE       0.046700
     36 H173        -7.7110    -0.6250    -0.2830 hc         1 7DE       0.046700
@<TRIPOS>BOND
     1     1     2 1   
     2     2     3 1   
     3     2     4 1   
     4     4     5 ar  
     5     4     6 ar  
     6     5     9 ar  
     7     5    22 1   
     8     6     7 ar  
     9     6    23 1   
    10     7     8 ar  
    11     7    10 1   
    12     8     9 ar  
    13     8    24 1   
    14     9    25 1   
    15    10    11 1   
    16    10    15 1   
    17    11    12 1   
    18    11    13 2   
    19    12    26 1   
    20    12    27 1   
    21    12    28 1   
    22    13    14 1   
    23    13    17 1   
    24    14    15 2   
    25    14    16 1   
    26    16    29 1   
    27    16    30 1   
    28    16    31 1   
    29    17    18 2   
    30    17    19 1   
    31    19    20 1   
    32    20    21 1   
    33    20    32 1   
    34    20    33 1   
    35    21    34 1   
    36    21    35 1   
    37    21    36 1   
@<TRIPOS>SUBSTRUCTURE
     1 7DE         1 TEMP              0 ****  ****    0 ROOT
