@<TRIPOS>MOLECULE
7DF
   39    42     1     0     0
SMALL
abcg2


@<TRIPOS>ATOM
      1 C1          24.0150    23.7180    19.0910 c5         1 7DF      -0.060400
      2 C2          23.6590    22.9730    17.7840 c5         1 7DF      -0.051000
      3 C3          23.1870    21.6030    18.3130 c5         1 7DF      -0.062400
      4 C4          22.5300    21.8360    19.6980 c5         1 7DF      -0.034000
      5 C5          20.9790    21.9270    19.6770 c5         1 7DF      -0.073700
      6 C6          20.6320    23.0920    20.6120 c5         1 7DF      -0.183700
      7 C9          22.8920    20.6700    20.6060 cx         1 7DF      -0.001000
      8 C10         23.1270    20.7520    22.0530 cx         1 7DF       0.095600
      9 C11         22.3320    19.3720    20.0730 c          1 7DF       0.673100
     10 C15         24.8820    22.8280    16.8760 c3         1 7DF      -0.083100
     11 C14         22.5520    23.6860    16.9940 c3         1 7DF      -0.083100
     12 C12         20.3090    20.6300    20.1150 c6         1 7DF       0.178600
     13 C7          21.7670    24.0950    20.3610 c5         1 7DF      -0.057400
     14 C13         19.2320    23.7040    20.4140 c          1 7DF       0.711000
     15 C8          23.0340    23.2370    20.1710 c5         1 7DF      -0.056700
     16 O4          18.8240    23.8460    19.2320 o          1 7DF      -0.728000
     17 O2          22.9600    18.3500    19.9300 o          1 7DF      -0.513000
     18 O5          18.6110    24.0440    21.4550 o          1 7DF      -0.728000
     19 O3          21.0480    19.4400    19.7030 os         1 7DF      -0.448100
     20 O1          24.2110    20.5840    21.1240 op         1 7DF      -0.424000
     21 H1          25.0320    23.4420    19.3810 hc         1 7DF       0.036700
     22 H2          23.9960    24.8030    18.9670 hc         1 7DF       0.036700
     23 H3          22.5140    21.0980    17.6170 hc         1 7DF       0.049200
     24 H4          24.0640    20.9630    18.4390 hc         1 7DF       0.049200
     25 H5          20.6470    22.1760    18.6710 hc         1 7DF       0.094700
     26 H6          20.7010    22.7440    21.6460 hc         1 7DF       0.032700
     27 H7          23.0780    21.7160    22.5460 h1         1 7DF       0.082700
     28 H8          22.9220    19.8860    22.6740 h1         1 7DF       0.082700
     29 H9          25.7000    22.3280    17.4010 hc         1 7DF       0.032867
     30 H10         24.6400    22.2420    15.9850 hc         1 7DF       0.032867
     31 H11         25.2380    23.8070    16.5450 hc         1 7DF       0.032867
     32 H12         21.6300    23.7940    17.5600 hc         1 7DF       0.032867
     33 H13         22.8810    24.6850    16.6980 hc         1 7DF       0.032867
     34 H14         22.3180    23.1240    16.0860 hc         1 7DF       0.032867
     35 H15         20.2090    20.5880    21.2010 h1         1 7DF       0.065700
     36 H16         19.3260    20.5070    19.6710 h1         1 7DF       0.065700
     37 H17         21.8750    24.8050    21.1830 hc         1 7DF       0.048200
     38 H18         21.5550    24.6700    19.4600 hc         1 7DF       0.048200
     39 H19         23.5530    23.1590    21.1250 hc         1 7DF       0.041700
@<TRIPOS>BOND
     1     1     2 1   
     2     1    15 1   
     3     1    21 1   
     4     1    22 1   
     5     2     3 1   
     6     2    10 1   
     7     2    11 1   
     8     3     4 1   
     9     3    23 1   
    10     3    24 1   
    11     4     5 1   
    12     4     7 1   
    13     4    15 1   
    14     5     6 1   
    15     5    12 1   
    16     5    25 1   
    17     6    13 1   
    18     6    14 1   
    19     6    26 1   
    20     7     8 1   
    21     7     9 1   
    22     7    20 1   
    23     8    20 1   
    24     8    27 1   
    25     8    28 1   
    26     9    17 2   
    27     9    19 1   
    28    10    29 1   
    29    10    30 1   
    30    10    31 1   
    31    11    32 1   
    32    11    33 1   
    33    11    34 1   
    34    12    19 1   
    35    12    35 1   
    36    12    36 1   
    37    13    15 1   
    38    13    37 1   
    39    13    38 1   
    40    14    16 1   
    41    14    18 1   
    42    15    39 1   
@<TRIPOS>SUBSTRUCTURE
     1 7DF         1 TEMP              0 ****  ****    0 ROOT
