@<TRIPOS>MOLECULE
7DF
   39    42     1     0     0
SMALL
No Charge or Current Charge


@<TRIPOS>ATOM
      1 C1          24.0550    23.7420    19.0710 c5         1 7DF      -0.060400
      2 C2          23.6220    22.9930    17.7550 c5         1 7DF      -0.051000
      3 C3          23.2650    21.5680    18.3120 c5         1 7DF      -0.062400
      4 C4          22.6190    21.8160    19.7150 c5         1 7DF      -0.034000
      5 C5          21.0550    21.9320    19.6480 c5         1 7DF      -0.073700
      6 C6          20.7600    23.0980    20.6760 c5         1 7DF      -0.183700
      7 C9          22.9510    20.5540    20.6640 cx         1 7DF      -0.001000
      8 C10         22.9560    20.7580    22.1760 cx         1 7DF       0.095600
      9 C11         22.3270    19.2130    20.2150 c          1 7DF       0.673100
     10 C15         24.8090    22.9090    16.7570 c3         1 7DF      -0.083100
     11 C14         22.4700    23.6840    16.9640 c3         1 7DF      -0.083100
     12 C12         20.2840    20.5830    19.9610 c6         1 7DF       0.178600
     13 C7          21.8470    24.1850    20.3600 c5         1 7DF      -0.057400
     14 C13         19.3250    23.6690    20.4830 c          1 7DF       0.711000
     15 C8          23.1230    23.2340    20.2230 c5         1 7DF      -0.056700
     16 O4          18.9840    24.1030    19.3920 o          1 7DF      -0.728000
     17 O2          22.9560    18.1680    20.1090 o          1 7DF      -0.513000
     18 O5          18.5610    23.6480    21.4350 o          1 7DF      -0.728000
     19 O3          21.0440    19.3460    19.7320 os         1 7DF      -0.448100
     20 O1          24.1940    20.5350    21.4440 op         1 7DF      -0.424000
     21 H1          25.0920    23.4930    19.3220 hc         1 7DF       0.036700
     22 H2          24.0330    24.8330    18.9580 hc         1 7DF       0.036700
     23 H3          22.6080    21.0050    17.6400 hc         1 7DF       0.049200
     24 H4          24.1770    20.9680    18.4200 hc         1 7DF       0.049200
     25 H5          20.7170    22.1990    18.6440 hc         1 7DF       0.094700
     26 H6          20.8650    22.7470    21.7080 hc         1 7DF       0.032700
     27 H7          22.8360    21.7550    22.5960 h1         1 7DF       0.082700
     28 H8          22.6490    19.9360    22.8230 h1         1 7DF       0.082700
     29 H9          25.6870    22.4350    17.2140 hc         1 7DF       0.032867
     30 H10         24.5460    22.3210    15.8700 hc         1 7DF       0.032867
     31 H11         25.1180    23.9060    16.4180 hc         1 7DF       0.032867
     32 H12         21.5520    23.8160    17.5350 hc         1 7DF       0.032867
     33 H13         22.7730    24.6820    16.6240 hc         1 7DF       0.032867
     34 H14         22.2040    23.1030    16.0730 hc         1 7DF       0.032867
     35 H15         19.9890    20.5880    21.0200 h1         1 7DF       0.065700
     36 H16         19.3510    20.5400    19.3800 h1         1 7DF       0.065700
     37 H17         21.9570    24.9100    21.1740 hc         1 7DF       0.048200
     38 H18         21.6250    24.7580    19.4560 hc         1 7DF       0.048200
     39 H19         23.6750    23.1910    21.1670 hc         1 7DF       0.041700
@<TRIPOS>BOND
     1     1     2 1   
     2     1    15 1   
     3     1    21 1   
     4     1    22 1   
     5     2     3 1   
     6     2    10 1   
     7     2    11 1   
     8     3     4 1   
     9     3    23 1   
    10     3    24 1   
    11     4     5 1   
    12     4     7 1   
    13     4    15 1   
    14     5     6 1   
    15     5    12 1   
    16     5    25 1   
    17     6    13 1   
    18     6    14 1   
    19     6    26 1   
    20     7     8 1   
    21     7     9 1   
    22     7    20 1   
    23     8    20 1   
    24     8    27 1   
    25     8    28 1   
    26     9    17 2   
    27     9    19 1   
    28    10    29 1   
    29    10    30 1   
    30    10    31 1   
    31    11    32 1   
    32    11    33 1   
    33    11    34 1   
    34    12    19 1   
    35    12    35 1   
    36    12    36 1   
    37    13    15 1   
    38    13    37 1   
    39    13    38 1   
    40    14    16 1   
    41    14    18 1   
    42    15    39 1   
@<TRIPOS>SUBSTRUCTURE
     1 7DF         1 TEMP              0 ****  ****    0 ROOT
