@<TRIPOS>MOLECULE
7DH
   14    13     1     0     0
SMALL
No Charge or Current Charge


@<TRIPOS>ATOM
      1 C01         -3.0260     0.4280     0.4920 c3         1 7DH       0.191800
      2 C02         -1.6970    -0.2860     0.4810 c2         1 7DH      -0.237200
      3 C03         -0.5010     0.2670     0.1550 ce         1 7DH      -0.243200
      4 C04          0.8090    -0.4740     0.1570 c          1 7DH       0.412300
      5 C05          2.1330     0.3690    -0.2720 c          1 7DH       0.651000
      6 O06          1.9880     1.4530    -0.8330 o          1 7DH      -0.698500
      7 O07          3.2390    -0.1080    -0.0250 o          1 7DH      -0.698500
      8 O08          0.8600    -1.6670     0.4750 o          1 7DH      -0.553100
      9 O1          -3.4940     0.5660    -0.8480 oh         1 7DH      -0.657000
     10 H1          -3.7480    -0.1450     1.0900 h1         1 7DH       0.013700
     11 H2          -2.9120     1.4150     0.9600 h1         1 7DH       0.013700
     12 H3          -1.7640    -1.3360     0.7730 ha         1 7DH       0.185000
     13 H5          -0.4490     1.3160    -0.1360 ha         1 7DH       0.196000
     14 H8          -4.3540     1.0380    -0.7980 ho         1 7DH       0.422000
@<TRIPOS>BOND
     1     1     2 1   
     2     1     9 1   
     3     1    10 1   
     4     1    11 1   
     5     2     3 2   
     6     2    12 1   
     7     3     4 1   
     8     3    13 1   
     9     4     5 1   
    10     4     8 2   
    11     5     6 1   
    12     5     7 1   
    13     9    14 1   
@<TRIPOS>SUBSTRUCTURE
     1 7DH         1 TEMP              0 ****  ****    0 ROOT
