@<TRIPOS>MOLECULE
7DH
   14    13     1     0     0
SMALL
bcc


@<TRIPOS>ATOM
      1 C01         -2.9320     0.5720     0.3400 c3         1 7DH       0.168600
      2 C02         -1.6620    -0.1970     0.2110 c2         1 7DH      -0.187200
      3 C03         -0.4540     0.3640     0.1310 ce         1 7DH      -0.193200
      4 C04          0.7820    -0.4470     0.0740 c          1 7DH       0.412300
      5 C05          2.1340     0.3150    -0.0310 c          1 7DH       0.861600
      6 O06          2.0490     1.5500    -0.1570 o          1 7DH      -0.803800
      7 O07          3.1500    -0.3900     0.0190 o          1 7DH      -0.803800
      8 O08          0.7610    -1.6590     0.1010 o          1 7DH      -0.553100
      9 O1          -3.8830     0.0310    -0.5500 oh         1 7DH      -0.594800
     10 H1          -3.2680     0.4880     1.3830 h1         1 7DH       0.013700
     11 H2          -2.7470     1.6370     0.1540 h1         1 7DH       0.013700
     12 H3          -1.7560    -1.2800     0.2290 ha         1 7DH       0.135000
     13 H5          -0.3510     1.4400     0.1050 ha         1 7DH       0.146000
     14 H8          -4.7390     0.4130    -0.3380 ho         1 7DH       0.383000
@<TRIPOS>BOND
     1     1     2 1   
     2     1     9 1   
     3     1    10 1   
     4     1    11 1   
     5     2     3 2   
     6     2    12 1   
     7     3     4 1   
     8     3    13 1   
     9     4     5 1   
    10     4     8 2   
    11     5     6 1   
    12     5     7 1   
    13     9    14 1   
@<TRIPOS>SUBSTRUCTURE
     1 7DH         1 TEMP              0 ****  ****    0 ROOT
