@<TRIPOS>MOLECULE
7DK
   70    74     1     0     0
SMALL
No Charge or Current Charge


@<TRIPOS>ATOM
      1 C13          4.9010    -0.3600     0.2650 ce         1 7DK      -0.084200
      2 C18          0.3970     1.8510     0.5100 c3         1 7DK       0.087400
      3 C15          2.5860     0.5900     0.5190 c          1 7DK       0.593300
      4 C19         -0.6500     1.0190    -0.2330 cc         1 7DK       0.401800
      5 C20          0.1620     3.3920     0.5250 c3         1 7DK      -0.081400
      6 C21         -3.9090    -0.4230    -0.7240 ca         1 7DK      -0.164500
      7 C22         -4.2330    -1.7280    -1.1540 ca         1 7DK      -0.059000
      8 C23         -5.5330    -2.2400    -1.0110 ca         1 7DK      -0.153000
      9 C24         -6.5480    -1.4550    -0.4330 ca         1 7DK       0.015000
     10 C34         -3.5240     4.3860     1.6570 c3         1 7DK      -0.078400
     11 C33         -2.3120     4.1870     0.7110 c3         1 7DK      -0.079400
     12 C2           8.6230    -1.2150    -0.0650 ca         1 7DK      -0.095000
     13 C3           8.8960    -0.7270    -1.3530 ca         1 7DK      -0.085000
     14 C4           7.8760    -0.1220    -2.1000 ca         1 7DK       0.126000
     15 C5           6.5850    -0.0030    -1.5640 ca         1 7DK      -0.089000
     16 C6           6.2930    -0.4860    -0.2700 ca         1 7DK      -0.029800
     17 C7           7.3290    -1.1000     0.4850 ca         1 7DK       0.011800
     18 N8           7.1050    -1.5860     1.7740 na         1 7DK      -0.003500
     19 C9           7.2870    -2.8800     2.1670 cc         1 7DK       0.393400
     20 N10          7.0890    -2.8820     3.4740 nd         1 7DK      -0.375000
     21 N11          6.8180    -1.5730     3.8370 nd         1 7DK      -0.034000
     22 N12          6.8520    -0.7600     2.8110 nc         1 7DK      -0.188800
     23 C14          3.9430     0.5520    -0.0770 cf         1 7DK      -0.280200
     24 O16          2.2110    -0.2070     1.3630 o          1 7DK      -0.567100
     25 N17          1.7740     1.5890     0.0380 ns         1 7DK      -0.525900
     26 C25         -6.2380    -0.1500    -0.0180 ca         1 7DK      -0.171000
     27 C26         -4.9370     0.3760    -0.1540 ca         1 7DK       0.020000
     28 N27         -0.3530     0.1330    -1.2420 na         1 7DK      -0.285500
     29 C28         -1.5080    -0.5430    -1.5780 cc         1 7DK      -0.208000
     30 C29         -2.4930     0.0180    -0.8040 cd         1 7DK       0.303500
     31 N30         -1.9370     0.9330     0.0670 nd         1 7DK      -0.686000
     32 N31         -4.7030     1.7420     0.1460 ns         1 7DK      -0.156000
     33 C32         -0.9860     3.8880     1.4470 c3         1 7DK      -0.069400
     34 C35         -4.8790     4.0560     0.9780 c3         1 7DK      -0.159400
     35 C36         -5.2430     2.5670     1.1170 c          1 7DK       0.603100
     36 N37         -7.8850    -1.9050    -0.2600 ns         1 7DK      -0.138000
     37 C38         -8.5070    -3.1040    -0.5560 c          1 7DK       0.646100
     38 O39         -9.8230    -3.0220    -0.1870 os         1 7DK      -0.459100
     39 O40         -7.9870    -4.0890    -1.0630 o          1 7DK      -0.524000
     40 C41        -10.6580    -4.1740    -0.4100 c3         1 7DK       0.171900
     41 O42         -5.9470     2.1600     2.0360 o          1 7DK      -0.600100
     42 H47          4.6400    -1.0970     1.0280 ha         1 7DK       0.216000
     43 H50          0.3530     1.5200     1.5560 h1         1 7DK       0.098700
     44 H51          1.0830     3.8650     0.8870 hc         1 7DK       0.044700
     45 H52          0.0170     3.7590    -0.4990 hc         1 7DK       0.044700
     46 H53         -3.4680    -2.3740    -1.5780 ha         1 7DK       0.116000
     47 H54         -5.7250    -3.2530    -1.3500 ha         1 7DK       0.150000
     48 H64         -3.4150     3.7690     2.5580 hc         1 7DK       0.046700
     49 H63         -3.5300     5.4300     1.9970 hc         1 7DK       0.046700
     50 H62         -2.5240     3.3870     0.0000 hc         1 7DK       0.045200
     51 H61         -2.1860     5.0890     0.0990 hc         1 7DK       0.045200
     52 H43          9.4230    -1.6760     0.5100 ha         1 7DK       0.137000
     53 H44          9.8950    -0.8160    -1.7720 ha         1 7DK       0.143000
     54 H45          5.8080     0.4550    -2.1690 ha         1 7DK       0.137000
     55 H46          7.5380    -3.7040     1.5110 h5         1 7DK       0.079100
     56 H48          4.1700     1.3140    -0.8200 ha         1 7DK       0.178000
     57 H49          2.1730     2.2100    -0.6560 hn         1 7DK       0.315500
     58 H55         -7.0320     0.4720     0.3890 ha         1 7DK       0.129000
     59 H56          0.5740    -0.0140    -1.6230 hn         1 7DK       0.352000
     60 H57         -1.5450    -1.3270    -2.3240 h4         1 7DK       0.163000
     61 H58         -4.0340     2.1910    -0.4650 hn         1 7DK       0.184000
     62 H59         -1.1580     3.1480     2.2390 hc         1 7DK       0.049200
     63 H60         -0.6650     4.8060     1.9550 hc         1 7DK       0.049200
     64 H66         -5.6650     4.6540     1.4530 hc         1 7DK       0.071200
     65 H65         -4.7910     4.3190    -0.0830 hc         1 7DK       0.071200
     66 H67         -8.5010    -1.2220     0.1580 hn         1 7DK       0.169000
     67 H68        -10.6960    -4.4300    -1.4770 h1         1 7DK       0.049700
     68 H69        -10.2810    -5.0450     0.1430 h1         1 7DK       0.049700
     69 H70        -11.6820    -3.9750    -0.0710 h1         1 7DK       0.049700
     70 Cl1          8.2140     0.4850    -3.7160 cl         1 7DK      -0.176000
@<TRIPOS>BOND
     1     1    16 1   
     2     1    23 2   
     3     1    42 1   
     4     2     4 1   
     5     2     5 1   
     6     2    25 1   
     7     2    43 1   
     8     3    23 1   
     9     3    24 2   
    10     3    25 1   
    11     4    28 1   
    12     4    31 2   
    13     5    33 1   
    14     5    44 1   
    15     5    45 1   
    16     6     7 ar  
    17     6    27 ar  
    18     6    30 1   
    19     7     8 ar  
    20     7    46 1   
    21     8     9 ar  
    22     8    47 1   
    23     9    26 ar  
    24     9    36 1   
    25    10    11 1   
    26    10    34 1   
    27    10    48 1   
    28    10    49 1   
    29    11    33 1   
    30    11    50 1   
    31    11    51 1   
    32    12    13 ar  
    33    12    17 ar  
    34    12    52 1   
    35    13    14 ar  
    36    13    53 1   
    37    14    15 ar  
    38    14    70 1   
    39    15    16 ar  
    40    15    54 1   
    41    16    17 ar  
    42    17    18 1   
    43    18    19 1   
    44    18    22 1   
    45    19    20 2   
    46    19    55 1   
    47    20    21 1   
    48    21    22 2   
    49    23    56 1   
    50    25    57 1   
    51    26    27 ar  
    52    26    58 1   
    53    27    32 1   
    54    28    29 1   
    55    28    59 1   
    56    29    30 2   
    57    29    60 1   
    58    30    31 1   
    59    32    35 1   
    60    32    61 1   
    61    33    62 1   
    62    33    63 1   
    63    34    35 1   
    64    34    64 1   
    65    34    65 1   
    66    35    41 2   
    67    36    37 1   
    68    36    66 1   
    69    37    38 1   
    70    37    39 2   
    71    38    40 1   
    72    40    67 1   
    73    40    68 1   
    74    40    69 1   
@<TRIPOS>SUBSTRUCTURE
     1 7DK         1 TEMP              0 ****  ****    0 ROOT
