@<TRIPOS>MOLECULE
7DK
   70    74     1     0     0
SMALL
abcg2


@<TRIPOS>ATOM
      1 C13          4.6030    -0.3920     0.1660 ce         1 7DK      -0.084200
      2 C18          0.4870     2.1660     0.7720 c3         1 7DK       0.087400
      3 C15          2.4730     0.7520     0.5340 c          1 7DK       0.593300
      4 C19         -0.5210     1.3040     0.0700 cc         1 7DK       0.401800
      5 C20          0.2000     3.6690     0.6520 c3         1 7DK      -0.081400
      6 C21         -3.6180    -0.3940    -0.3000 ca         1 7DK      -0.164500
      7 C22         -3.8500    -1.7190    -0.6510 ca         1 7DK      -0.059000
      8 C23         -5.1040    -2.3060    -0.5790 ca         1 7DK      -0.153000
      9 C24         -6.1780    -1.5500    -0.1140 ca         1 7DK       0.015000
     10 C34         -3.6020     4.3230     1.2740 c3         1 7DK      -0.078400
     11 C33         -2.3230     4.1730     0.4520 c3         1 7DK      -0.079400
     12 C2           8.1540    -1.6010    -0.2450 ca         1 7DK      -0.095000
     13 C3           8.5460    -0.9420    -1.3970 ca         1 7DK      -0.085000
     14 C4           7.6460    -0.0850    -2.0130 ca         1 7DK       0.126000
     15 C5           6.3730     0.1090    -1.5080 ca         1 7DK      -0.089000
     16 C6           5.9600    -0.5570    -0.3540 ca         1 7DK      -0.029800
     17 C7           6.8790    -1.4110     0.2620 ca         1 7DK       0.011800
     18 N8           6.5210    -2.0980     1.4460 na         1 7DK      -0.003500
     19 C9           6.5290    -3.4100     1.7040 cc         1 7DK       0.393400
     20 N10          6.1620    -3.5800     2.9450 nd         1 7DK      -0.375000
     21 N11          5.9350    -2.3570     3.4320 nd         1 7DK      -0.034000
     22 N12          6.1470    -1.4630     2.5550 nc         1 7DK      -0.188800
     23 C14          3.8530     0.6970    -0.0050 cf         1 7DK      -0.280200
     24 O16          1.9620    -0.1640     1.1610 o          1 7DK      -0.567100
     25 N17          1.8180     1.8990     0.2680 ns         1 7DK      -0.525900
     26 C25         -5.9650    -0.2210     0.2550 ca         1 7DK      -0.171000
     27 C26         -4.7100     0.3590     0.1560 ca         1 7DK       0.020000
     28 N27         -0.3470     0.8400    -1.1820 na         1 7DK      -0.285500
     29 C28         -1.4550     0.1250    -1.5290 cc         1 7DK      -0.208000
     30 C29         -2.2830     0.1910    -0.4420 cd         1 7DK       0.303500
     31 N30         -1.6810     0.9280     0.5490 nd         1 7DK      -0.686000
     32 N31         -4.5240     1.7080     0.5070 ns         1 7DK      -0.156000
     33 C32         -1.0920     4.0990     1.3500 c3         1 7DK      -0.069400
     34 C35         -4.8900     4.1340     0.4850 c3         1 7DK      -0.159400
     35 C36         -5.2830     2.7360     0.0450 c          1 7DK       0.603100
     36 N37         -7.4820    -2.0250     0.0320 ns         1 7DK      -0.138000
     37 C38         -7.9670    -3.2610    -0.2570 c          1 7DK       0.646100
     38 O39         -9.2650    -3.3040     0.0370 os         1 7DK      -0.459100
     39 O40         -7.3390    -4.1910    -0.7100 o          1 7DK      -0.524000
     40 C41         -9.9450    -4.5310    -0.2150 c3         1 7DK       0.171900
     41 O42         -6.2590     2.5660    -0.6670 o          1 7DK      -0.600100
     42 H47          4.1790    -1.2220     0.7210 ha         1 7DK       0.216000
     43 H50          0.4480     1.9030     1.8340 h1         1 7DK       0.098700
     44 H51          1.0480     4.1850     1.1090 hc         1 7DK       0.044700
     45 H52          0.1900     3.9630    -0.4020 hc         1 7DK       0.044700
     46 H53         -3.0170    -2.3200    -0.9950 ha         1 7DK       0.116000
     47 H54         -5.2230    -3.3370    -0.8670 ha         1 7DK       0.150000
     48 H64         -3.5860     3.6380     2.1290 hc         1 7DK       0.046700
     49 H63         -3.6200     5.3210     1.7180 hc         1 7DK       0.046700
     50 H62         -2.3780     3.2880    -0.1850 hc         1 7DK       0.045200
     51 H61         -2.2330     5.0210    -0.2330 hc         1 7DK       0.045200
     52 H43          8.8480    -2.2560     0.2630 ha         1 7DK       0.137000
     53 H44          9.5390    -1.0900    -1.7980 ha         1 7DK       0.143000
     54 H45          5.6830     0.7560    -2.0320 ha         1 7DK       0.137000
     55 H46          6.7860    -4.1720     0.9860 h5         1 7DK       0.079100
     56 H48          4.2340     1.5700    -0.5240 ha         1 7DK       0.178000
     57 H49          2.2950     2.6390    -0.2240 hn         1 7DK       0.315500
     58 H55         -6.7940     0.3620     0.6340 ha         1 7DK       0.129000
     59 H56          0.4630     0.9870    -1.7650 hn         1 7DK       0.352000
     60 H57         -1.5630    -0.3460    -2.4910 h4         1 7DK       0.163000
     61 H58         -3.6420     1.9180     0.9530 hn         1 7DK       0.184000
     62 H59         -1.2920     3.4120     2.1780 hc         1 7DK       0.049200
     63 H60         -0.9390     5.0780     1.8100 hc         1 7DK       0.049200
     64 H66         -5.7360     4.5000     1.0750 hc         1 7DK       0.071200
     65 H65         -4.8770     4.7540    -0.4160 hc         1 7DK       0.071200
     66 H67         -8.1500    -1.3610     0.3940 hn         1 7DK       0.169000
     67 H68         -9.9240    -4.7910    -1.2730 h1         1 7DK       0.049700
     68 H69         -9.5240    -5.3510     0.3660 h1         1 7DK       0.049700
     69 H70        -10.9740    -4.3670     0.0930 h1         1 7DK       0.049700
     70 CL1          8.1160     0.7470    -3.4510 cl         1 7DK      -0.176000
@<TRIPOS>BOND
     1     1    16 1   
     2     1    23 2   
     3     1    42 1   
     4     2     4 1   
     5     2     5 1   
     6     2    25 1   
     7     2    43 1   
     8     3    23 1   
     9     3    24 2   
    10     3    25 1   
    11     4    28 1   
    12     4    31 2   
    13     5    33 1   
    14     5    44 1   
    15     5    45 1   
    16     6     7 ar  
    17     6    27 ar  
    18     6    30 1   
    19     7     8 ar  
    20     7    46 1   
    21     8     9 ar  
    22     8    47 1   
    23     9    26 ar  
    24     9    36 1   
    25    10    11 1   
    26    10    34 1   
    27    10    48 1   
    28    10    49 1   
    29    11    33 1   
    30    11    50 1   
    31    11    51 1   
    32    12    13 ar  
    33    12    17 ar  
    34    12    52 1   
    35    13    14 ar  
    36    13    53 1   
    37    14    15 ar  
    38    14    70 1   
    39    15    16 ar  
    40    15    54 1   
    41    16    17 ar  
    42    17    18 1   
    43    18    19 1   
    44    18    22 1   
    45    19    20 2   
    46    19    55 1   
    47    20    21 1   
    48    21    22 2   
    49    23    56 1   
    50    25    57 1   
    51    26    27 ar  
    52    26    58 1   
    53    27    32 1   
    54    28    29 1   
    55    28    59 1   
    56    29    30 2   
    57    29    60 1   
    58    30    31 1   
    59    32    35 1   
    60    32    61 1   
    61    33    62 1   
    62    33    63 1   
    63    34    35 1   
    64    34    64 1   
    65    34    65 1   
    66    35    41 2   
    67    36    37 1   
    68    36    66 1   
    69    37    38 1   
    70    37    39 2   
    71    38    40 1   
    72    40    67 1   
    73    40    68 1   
    74    40    69 1   
@<TRIPOS>SUBSTRUCTURE
     1 7DK         1 TEMP              0 ****  ****    0 ROOT
