@<TRIPOS>MOLECULE
7DL
   72    76     1     0     0
SMALL
No Charge or Current Charge


@<TRIPOS>ATOM
      1 C16          2.6430     0.8250     0.7440 c          1 7DL       0.592300
      2 C15          3.9760     0.8120     0.0880 ce         1 7DL      -0.279200
      3 C19          0.3480     1.8660     0.6380 c3         1 7DL       0.089400
      4 C20         -0.6420     0.8030     0.1610 cc         1 7DL       0.407800
      5 C21         -0.1090     3.3060     0.2710 c3         1 7DL      -0.082400
      6 C22         -3.9640    -0.4560    -0.3520 ca         1 7DL      -0.128500
      7 C23         -4.4150    -1.7950    -0.3110 ca         1 7DL      -0.060000
      8 C24         -5.7790    -2.1130    -0.2330 ca         1 7DL      -0.141000
      9 C34         -2.2100     4.8270     0.4200 c3         1 7DL      -0.066400
     10 C27         -4.9440     0.5860    -0.2870 ca         1 7DL      -0.014300
     11 C33         -1.2570     3.8600     1.1600 c3         1 7DL      -0.088400
     12 C3           8.6290    -1.0790    -0.1530 ca         1 7DL      -0.097000
     13 C4           9.0280    -0.1570    -1.1320 ca         1 7DL      -0.086000
     14 C5           8.1270     0.8200    -1.5730 ca         1 7DL       0.126000
     15 C6           6.8310     0.8800    -1.0390 ca         1 7DL      -0.088000
     16 C7           6.4080    -0.0400    -0.0530 ca         1 7DL      -0.029800
     17 C8           7.3280    -1.0320     0.3900 ca         1 7DL       0.011800
     18 N9           6.9820    -1.9810     1.3530 na         1 7DL      -0.002500
     19 C10          7.5440    -2.0820     2.5920 cc         1 7DL       0.393400
     20 N11          7.0240    -3.1740     3.1240 nd         1 7DL      -0.375000
     21 N12          6.1780    -3.7180     2.1720 nd         1 7DL      -0.034000
     22 N13          6.1620    -3.0130     1.0680 nc         1 7DL      -0.190800
     23 C14          5.0340     0.0540     0.5080 cf         1 7DL      -0.084200
     24 O17          2.3740     0.1550     1.7280 o          1 7DL      -0.569100
     25 N18          1.7220     1.6480     0.1420 ns         1 7DL      -0.522900
     26 C25         -6.7430    -1.0920    -0.1860 ca         1 7DL       0.002000
     27 C26         -6.3110     0.2410    -0.2140 ca         1 7DL      -0.178000
     28 N28         -0.3060    -0.3340    -0.5310 na         1 7DL      -0.284500
     29 C29         -1.4710    -0.9980    -0.8320 cc         1 7DL      -0.009000
     30 C30         -2.4980    -0.1990    -0.3640 cd         1 7DL       0.327500
     31 N31         -1.9530     0.8680     0.3120 nd         1 7DL      -0.663000
     32 C32         -4.6380     2.0910    -0.4090 c3         1 7DL      -0.028100
     33 C35         -3.4950     5.1630     1.2180 c3         1 7DL      -0.069400
     34 C36         -4.7880     4.4160     0.7850 c3         1 7DL      -0.072400
     35 C37         -4.8040     2.8660     0.9270 c3         1 7DL      -0.069400
     36 N38         -8.1410    -1.3350    -0.1080 ns         1 7DL      -0.139000
     37 C39         -8.8810    -2.5030    -0.0860 c          1 7DL       0.645100
     38 O40        -10.2090    -2.1840     0.0020 os         1 7DL      -0.461100
     39 O41         -8.4420    -3.6440    -0.1360 o          1 7DL      -0.521000
     40 C42        -11.1610    -3.2640     0.0380 c3         1 7DL       0.171900
     41 H48          4.0770     1.4520    -0.7830 ha         1 7DL       0.178000
     42 H50          0.3810     1.8020     1.7340 h1         1 7DL       0.098700
     43 H51          0.7410     3.9960     0.3530 hc         1 7DL       0.042200
     44 H52         -0.4090     3.3140    -0.7840 hc         1 7DL       0.042200
     45 H53         -3.7060    -2.6160    -0.2930 ha         1 7DL       0.123000
     46 H54         -6.0610    -3.1600    -0.1970 ha         1 7DL       0.150000
     47 H62         -1.6630     5.7560     0.2130 hc         1 7DL       0.034200
     48 H61         -2.4890     4.4120    -0.5560 hc         1 7DL       0.034200
     49 H60         -1.8420     3.0430     1.5880 hc         1 7DL       0.062700
     50 H59         -0.8180     4.3770     2.0230 hc         1 7DL       0.062700
     51 H43          9.3320    -1.8410     0.1790 ha         1 7DL       0.137000
     52 H44         10.0310    -0.2000    -1.5490 ha         1 7DL       0.142000
     53 H45          6.1660     1.6590    -1.3960 ha         1 7DL       0.138000
     54 H46          8.2600    -1.3870     3.0120 h5         1 7DL       0.079100
     55 H47          4.8550    -0.5690     1.3870 ha         1 7DL       0.216000
     56 H49          2.0330     2.1690    -0.6690 hn         1 7DL       0.316500
     57 H55         -7.0560     1.0340    -0.1910 ha         1 7DL       0.108000
     58 H56          0.6330    -0.6120    -0.7780 hn         1 7DL       0.364000
     59 H58         -3.6570     2.2910    -0.8490 hc         1 7DL       0.046700
     60 H57         -5.3430     2.5180    -1.1330 hc         1 7DL       0.046700
     61 H64         -3.3230     5.0040     2.2900 hc         1 7DL       0.036700
     62 H63         -3.6880     6.2380     1.1070 hc         1 7DL       0.036700
     63 H65         -5.6070     4.8130     1.3980 hc         1 7DL       0.033200
     64 H66         -5.0350     4.6970    -0.2460 hc         1 7DL       0.033200
     65 H68         -5.7730     2.5840     1.3580 hc         1 7DL       0.047700
     66 H67         -4.0540     2.5350     1.6530 hc         1 7DL       0.047700
     67 H69         -8.7040    -0.4970    -0.0600 hn         1 7DL       0.164000
     68 H70        -11.0940    -3.8760    -0.8710 h1         1 7DL       0.050033
     69 H71        -10.9860    -3.9120     0.9070 h1         1 7DL       0.050033
     70 H72        -12.1830    -2.8710     0.1080 h1         1 7DL       0.050033
     71 Cl2         -1.5180    -2.4550    -1.7820 cl         1 7DL      -0.128000
     72 Cl1          8.6250     1.9820    -2.7970 cl         1 7DL      -0.176000
@<TRIPOS>BOND
     1     1     2 1   
     2     1    24 2   
     3     1    25 1   
     4     2    23 2   
     5     2    41 1   
     6     3     4 1   
     7     3     5 1   
     8     3    25 1   
     9     3    42 1   
    10     4    28 1   
    11     4    31 2   
    12     5    11 1   
    13     5    43 1   
    14     5    44 1   
    15     6     7 ar  
    16     6    10 ar  
    17     6    30 1   
    18     7     8 ar  
    19     7    45 1   
    20     8    26 ar  
    21     8    46 1   
    22     9    11 1   
    23     9    33 1   
    24     9    47 1   
    25     9    48 1   
    26    10    27 ar  
    27    10    32 1   
    28    11    49 1   
    29    11    50 1   
    30    12    13 ar  
    31    12    17 ar  
    32    12    51 1   
    33    13    14 ar  
    34    13    52 1   
    35    14    15 ar  
    36    14    72 1   
    37    15    16 ar  
    38    15    53 1   
    39    16    17 ar  
    40    16    23 1   
    41    17    18 1   
    42    18    19 1   
    43    18    22 1   
    44    19    20 2   
    45    19    54 1   
    46    20    21 1   
    47    21    22 2   
    48    23    55 1   
    49    25    56 1   
    50    26    27 ar  
    51    26    36 1   
    52    27    57 1   
    53    28    29 1   
    54    28    58 1   
    55    29    30 2   
    56    29    71 1   
    57    30    31 1   
    58    32    35 1   
    59    32    59 1   
    60    32    60 1   
    61    33    34 1   
    62    33    61 1   
    63    33    62 1   
    64    34    35 1   
    65    34    63 1   
    66    34    64 1   
    67    35    65 1   
    68    35    66 1   
    69    36    37 1   
    70    36    67 1   
    71    37    38 1   
    72    37    39 2   
    73    38    40 1   
    74    40    68 1   
    75    40    69 1   
    76    40    70 1   
@<TRIPOS>SUBSTRUCTURE
     1 7DL         1 TEMP              0 ****  ****    0 ROOT
