@<TRIPOS>MOLECULE
7DL
   72    76     1     0     0
SMALL
abcg2


@<TRIPOS>ATOM
      1 C16          2.5020     0.9500     0.7190 c          1 7DL       0.592300
      2 C15          3.9090     0.9460     0.2520 ce         1 7DL      -0.279200
      3 C19          0.3820     2.1600     0.6090 c3         1 7DL       0.089400
      4 C20         -0.5370     1.0990     0.0810 cc         1 7DL       0.407800
      5 C21         -0.1000     3.5390     0.1270 c3         1 7DL      -0.082400
      6 C22         -3.7350    -0.4110    -0.2000 ca         1 7DL      -0.128500
      7 C23         -4.0740    -1.7460    -0.0030 ca         1 7DL      -0.060000
      8 C24         -5.3850    -2.1660     0.1480 ca         1 7DL      -0.141000
      9 C34         -2.2360     4.9510     0.0090 c3         1 7DL      -0.066400
     10 C27         -4.7580     0.5450    -0.2720 ca         1 7DL      -0.014300
     11 C33         -1.4090     3.9490     0.8030 c3         1 7DL      -0.088400
     12 C3           8.2550    -1.2720     0.0670 ca         1 7DL      -0.097000
     13 C4           8.9330    -0.1100    -0.2530 ca         1 7DL      -0.086000
     14 C5           8.2300     1.0850    -0.2900 ca         1 7DL       0.126000
     15 C6           6.8790     1.1330     0.0000 ca         1 7DL      -0.088000
     16 C7           6.1840    -0.0280     0.3370 ca         1 7DL      -0.029800
     17 C8           6.9020    -1.2270     0.3600 ca         1 7DL       0.011800
     18 N9           6.2460    -2.4400     0.6760 na         1 7DL      -0.002500
     19 C10          6.5330    -3.3420     1.6210 cc         1 7DL       0.393400
     20 N11          5.6810    -4.3250     1.5140 nd         1 7DL      -0.375000
     21 N12          4.8800    -4.0080     0.4940 nd         1 7DL      -0.034000
     22 N13          5.2020    -2.8900    -0.0190 nc         1 7DL      -0.190800
     23 C14          4.7660     0.0240     0.6920 cf         1 7DL      -0.084200
     24 O17          2.0580     0.1390     1.5190 o          1 7DL      -0.569100
     25 N18          1.7440     1.9300     0.1870 ns         1 7DL      -0.522900
     26 C25         -6.4060    -1.2160     0.1030 ca         1 7DL       0.002000
     27 C26         -6.0710     0.1200    -0.1140 ca         1 7DL      -0.178000
     28 N28         -0.2990     0.3960    -1.0460 na         1 7DL      -0.284500
     29 C29         -1.4330    -0.3160    -1.3150 cc         1 7DL      -0.009000
     30 C30         -2.3300    -0.0130    -0.3320 cd         1 7DL       0.327500
     31 N31         -1.7370     0.8580     0.5400 nd         1 7DL      -0.663000
     32 C32         -4.5160     2.0070    -0.5570 c3         1 7DL      -0.028100
     33 C35         -3.5810     5.2830     0.6680 c3         1 7DL      -0.069400
     34 C36         -4.7860     4.4270     0.2690 c3         1 7DL      -0.072400
     35 C37         -4.7830     2.9300     0.6380 c3         1 7DL      -0.069400
     36 N38         -7.7640    -1.5020     0.2480 ns         1 7DL      -0.139000
     37 C39         -8.3540    -2.7010     0.4880 c          1 7DL       0.645100
     38 O40         -9.6740    -2.5380     0.5680 os         1 7DL      -0.461100
     39 O41         -7.7920    -3.7650     0.6140 o          1 7DL      -0.521000
     40 C42        -10.4550    -3.7050     0.8150 c3         1 7DL       0.171900
     41 H48          4.2120     1.7110    -0.4540 ha         1 7DL       0.178000
     42 H50          0.3300     2.1350     1.7020 h1         1 7DL       0.098700
     43 H51          0.6790     4.2770     0.3340 hc         1 7DL       0.042200
     44 H52         -0.2230     3.5100    -0.9610 hc         1 7DL       0.042200
     45 H53         -3.2860    -2.4870     0.0460 ha         1 7DL       0.123000
     46 H54         -5.5920    -3.2120     0.3020 ha         1 7DL       0.150000
     47 H62         -1.6580     5.8720    -0.1160 hc         1 7DL       0.034200
     48 H61         -2.4060     4.5710    -1.0040 hc         1 7DL       0.034200
     49 H60         -2.0070     3.0590     0.9840 hc         1 7DL       0.062700
     50 H59         -1.1840     4.3670     1.7890 hc         1 7DL       0.062700
     51 H43          8.7830    -2.2160     0.0720 ha         1 7DL       0.137000
     52 H44          9.9900    -0.1410    -0.4750 ha         1 7DL       0.142000
     53 H45          6.3630     2.0840     0.0000 ha         1 7DL       0.138000
     54 H46          7.3290    -3.2390     2.3400 h5         1 7DL       0.079100
     55 H47          4.3950    -0.7340     1.3730 ha         1 7DL       0.216000
     56 H49          2.1710     2.6020    -0.4310 hn         1 7DL       0.316500
     57 H55         -6.8670     0.8570    -0.1770 ha         1 7DL       0.108000
     58 H56          0.5440     0.4060    -1.6010 hn         1 7DL       0.364000
     59 H58         -3.5030     2.1660    -0.9290 hc         1 7DL       0.046700
     60 H57         -5.1860     2.3050    -1.3700 hc         1 7DL       0.046700
     61 H64         -3.4640     5.2600     1.7570 hc         1 7DL       0.036700
     62 H63         -3.8410     6.3170     0.4250 hc         1 7DL       0.036700
     63 H65         -5.6630     4.8900     0.7300 hc         1 7DL       0.033200
     64 H66         -4.9440     4.5300    -0.8100 hc         1 7DL       0.033200
     65 H68         -5.7600     2.6710     1.0530 hc         1 7DL       0.047700
     66 H67         -4.0610     2.7240     1.4310 hc         1 7DL       0.047700
     67 H69         -8.3850    -0.7090     0.1770 hn         1 7DL       0.164000
     68 H70        -10.3410    -4.4390     0.0170 h1         1 7DL       0.050033
     69 H71        -10.1980    -4.1660     1.7680 h1         1 7DL       0.050033
     70 H72        -11.4860    -3.3680     0.8470 h1         1 7DL       0.050033
     71 CL2         -1.5680    -1.3250    -2.6770 cl         1 7DL      -0.128000
     72 CL1          9.0600     2.5450    -0.6870 cl         1 7DL      -0.176000
@<TRIPOS>BOND
     1     1     2 1   
     2     1    24 2   
     3     1    25 1   
     4     2    23 2   
     5     2    41 1   
     6     3     4 1   
     7     3     5 1   
     8     3    25 1   
     9     3    42 1   
    10     4    28 1   
    11     4    31 2   
    12     5    11 1   
    13     5    43 1   
    14     5    44 1   
    15     6     7 ar  
    16     6    10 ar  
    17     6    30 1   
    18     7     8 ar  
    19     7    45 1   
    20     8    26 ar  
    21     8    46 1   
    22     9    11 1   
    23     9    33 1   
    24     9    47 1   
    25     9    48 1   
    26    10    27 ar  
    27    10    32 1   
    28    11    49 1   
    29    11    50 1   
    30    12    13 ar  
    31    12    17 ar  
    32    12    51 1   
    33    13    14 ar  
    34    13    52 1   
    35    14    15 ar  
    36    14    72 1   
    37    15    16 ar  
    38    15    53 1   
    39    16    17 ar  
    40    16    23 1   
    41    17    18 1   
    42    18    19 1   
    43    18    22 1   
    44    19    20 2   
    45    19    54 1   
    46    20    21 1   
    47    21    22 2   
    48    23    55 1   
    49    25    56 1   
    50    26    27 ar  
    51    26    36 1   
    52    27    57 1   
    53    28    29 1   
    54    28    58 1   
    55    29    30 2   
    56    29    71 1   
    57    30    31 1   
    58    32    35 1   
    59    32    59 1   
    60    32    60 1   
    61    33    34 1   
    62    33    61 1   
    63    33    62 1   
    64    34    35 1   
    65    34    63 1   
    66    34    64 1   
    67    35    65 1   
    68    35    66 1   
    69    36    37 1   
    70    36    67 1   
    71    37    38 1   
    72    37    39 2   
    73    38    40 1   
    74    40    68 1   
    75    40    69 1   
    76    40    70 1   
@<TRIPOS>SUBSTRUCTURE
     1 7DL         1 TEMP              0 ****  ****    0 ROOT
