@<TRIPOS>MOLECULE
7DM
   21    22     1     0     0
SMALL
bcc


@<TRIPOS>ATOM
      1 C25         -3.3990    -0.1740     0.0280 c          1 7DM       0.931200
      2 O26         -3.6290    -1.4060    -0.0120 o          1 7DM      -0.820300
      3 C27         -1.9250     0.2230     0.0280 ca         1 7DM      -0.180600
      4 C28         -1.5460     1.5710     0.0500 ca         1 7DM      -0.034000
      5 C29         -0.2200     1.9470     0.0500 ca         1 7DM      -0.233000
      6 C30          0.7810     0.9720     0.0330 ca         1 7DM       0.093600
      7 C31          0.4220    -0.3830     0.0120 ca         1 7DM      -0.171800
      8 C32         -0.9320    -0.7360     0.0080 ca         1 7DM      -0.030000
      9 C33          1.4930    -1.3480    -0.0000 cc         1 7DM       0.259900
     10 C34          2.7910    -0.9530     0.0090 cd         1 7DM      -0.428200
     11 C35          3.1650     0.4380     0.0280 c          1 7DM       0.733700
     12 O36          4.3190     0.8430     0.0360 o          1 7DM      -0.681500
     13 N37          2.1070     1.3190     0.0360 ns         1 7DM      -0.451100
     14 O38          1.1110    -2.6260    -0.0180 oh         1 7DM      -0.471100
     15 H28         -2.3200     2.3270     0.0660 ha         1 7DM       0.152000
     16 H32         -1.2180    -1.7790    -0.0100 ha         1 7DM       0.167000
     17 H29          0.0490     2.9970     0.0650 ha         1 7DM       0.116000
     18 H37          2.3460     2.2990     0.0570 hn         1 7DM       0.312500
     19 H34          3.5990    -1.6730     0.0020 ha         1 7DM       0.139000
     20 H38          1.8790    -3.2050    -0.0150 ho         1 7DM       0.419000
     21 OXT         -4.2210     0.7460     0.0670 o          1 7DM      -0.820300
@<TRIPOS>BOND
     1     1     2 1   
     2     1     3 1   
     3     1    21 1   
     4     3     4 ar  
     5     3     8 ar  
     6     4     5 ar  
     7     4    15 1   
     8     5     6 ar  
     9     5    17 1   
    10     6     7 ar  
    11     6    13 1   
    12     7     8 ar  
    13     7     9 1   
    14     8    16 1   
    15     9    10 2   
    16     9    14 1   
    17    10    11 1   
    18    10    19 1   
    19    11    12 2   
    20    11    13 1   
    21    13    18 1   
    22    14    20 1   
@<TRIPOS>SUBSTRUCTURE
     1 7DM         1 TEMP              0 ****  ****    0 ROOT
