@<TRIPOS>MOLECULE
7DM
   21    22     1     0     0
SMALL
No Charge or Current Charge


@<TRIPOS>ATOM
      1 C25         -3.4220    -0.1570     0.0250 c          1 7DM       0.720600
      2 O26         -3.7070    -1.3460     0.0070 o          1 7DM      -0.715000
      3 C27         -1.9580     0.2360     0.0300 ca         1 7DM      -0.180600
      4 C28         -1.5800     1.5980     0.0500 ca         1 7DM      -0.016000
      5 C29         -0.2230     1.9580     0.0540 ca         1 7DM      -0.215000
      6 C30          0.7650     0.9660     0.0380 ca         1 7DM       0.093600
      7 C31          0.4210    -0.3940     0.0180 ca         1 7DM      -0.171800
      8 C32         -0.9460    -0.7530     0.0130 ca         1 7DM      -0.012000
      9 C33          1.4930    -1.3970     0.0010 cc         1 7DM       0.259900
     10 C34          2.7980    -0.9690     0.0060 cd         1 7DM      -0.478200
     11 C35          3.1810     0.4490     0.0280 c          1 7DM       0.591200
     12 O36          4.3380     0.8330     0.0320 o          1 7DM      -0.606000
     13 N37          2.1210     1.3100     0.0420 ns         1 7DM      -0.384100
     14 O38          1.1580    -2.6950    -0.0180 oh         1 7DM      -0.510100
     15 H28         -2.3360     2.3810     0.0630 ha         1 7DM       0.134000
     16 H32         -1.2260    -1.8050    -0.0020 ha         1 7DM       0.149000
     17 H29          0.0560     3.0090     0.0700 ha         1 7DM       0.098000
     18 H37          2.3480     2.2950     0.0570 hn         1 7DM       0.312500
     19 H34          3.6320    -1.6580    -0.0050 ha         1 7DM       0.189000
     20 H38          2.0010    -3.1920    -0.0270 ho         1 7DM       0.458000
     21 OXT         -4.2640     0.7280     0.0390 o          1 7DM      -0.715000
@<TRIPOS>BOND
     1     1     2 1   
     2     1     3 1   
     3     1    21 1   
     4     3     4 ar  
     5     3     8 ar  
     6     4     5 ar  
     7     4    15 1   
     8     5     6 ar  
     9     5    17 1   
    10     6     7 ar  
    11     6    13 1   
    12     7     8 ar  
    13     7     9 1   
    14     8    16 1   
    15     9    10 2   
    16     9    14 1   
    17    10    11 1   
    18    10    19 1   
    19    11    12 2   
    20    11    13 1   
    21    13    18 1   
    22    14    20 1   
@<TRIPOS>SUBSTRUCTURE
     1 7DM         1 TEMP              0 ****  ****    0 ROOT
