@<TRIPOS>MOLECULE
7DN
   70    74     1     0     0
SMALL
No Charge or Current Charge


@<TRIPOS>ATOM
      1 O1           5.1740    -2.0160    -2.7880 o          1 7DN      -0.718500
      2 C7          -6.7420     0.4420     1.7730 ca         1 7DN      -0.042000
      3 O2           7.1250    -1.5890    -1.9800 o          1 7DN      -0.718500
      4 C6          -5.3930     0.8180     1.7570 ca         1 7DN      -0.197000
      5 C1          -0.4230     1.5960     0.1840 c6         1 7DN      -0.141700
      6 N1          -5.0850    -0.1940    -0.4110 nb         1 7DN      -0.755000
      7 C5          -4.6010     0.4810     0.6460 ca         1 7DN       0.625900
      8 C4          -2.6740     1.9440     1.3540 c6         1 7DN       0.207800
      9 C3          -2.2320    -0.2110     0.1640 c6         1 7DN       0.207800
     10 C2          -1.0430     0.4140    -0.6050 c6         1 7DN      -0.100900
     11 O            0.7060     2.8070    -1.5850 o          1 7DN      -0.615100
     12 C15          0.8010     2.2290    -0.5100 c          1 7DN       0.599100
     13 N2           1.9960     2.0930     0.1690 ns         1 7DN      -0.491900
     14 C16          3.2140     2.6800    -0.4140 c5         1 7DN       0.116700
     15 C29          3.3150     4.1120     0.2210 c5         1 7DN      -0.099400
     16 C28          4.5570     4.0480     1.1590 c5         1 7DN      -0.081400
     17 C27          4.5940     2.5570     1.5770 c5         1 7DN      -0.081400
     18 C17          4.4220     1.8800     0.1880 c5         1 7DN      -0.081700
     19 C18          4.2960     0.3290     0.2020 c3         1 7DN      -0.061400
     20 C20          5.4010    -1.9310     0.6260 ca         1 7DN      -0.063300
     21 C21          5.0240    -2.6090     1.8050 ca         1 7DN      -0.138000
     22 C22          4.8320    -3.9990     1.8030 ca         1 7DN      -0.146000
     23 C23          5.0090    -4.7290     0.6190 ca         1 7DN      -0.140000
     24 C24          5.3800    -4.0670    -0.5620 ca         1 7DN      -0.092000
     25 C25          5.5840    -2.6710    -0.5730 ca         1 7DN      -0.113600
     26 C26          5.9820    -2.0100    -1.8700 c          1 7DN       0.709600
     27 C           -1.4920     2.6280     0.6230 c6         1 7DN      -0.100900
     28 N           -3.2390     0.8260     0.5450 nh         1 7DN      -0.762300
     29 C8          -7.2490    -0.2620     0.6680 ca         1 7DN      -0.123000
     30 C9          -6.3880    -0.5690    -0.4200 ca         1 7DN       0.327000
     31 C13         -8.5990    -0.6540     0.6540 ca         1 7DN      -0.085000
     32 C12         -9.1130    -1.3570    -0.4430 ca         1 7DN      -0.126000
     33 C11         -8.2800    -1.6710    -1.5260 ca         1 7DN      -0.103000
     34 C10         -6.9240    -1.2840    -1.5240 ca         1 7DN      -0.054300
     35 C14         -6.0490    -1.6460    -2.7240 c3         1 7DN      -0.037800
     36 H4          -0.0370     1.1570     1.1160 hc         1 7DN       0.043700
     37 H5          -2.3320     1.5680     2.3300 h1         1 7DN       0.056200
     38 H6          -3.4410     2.7100     1.5470 h1         1 7DN       0.056200
     39 H7          -2.6750    -0.9950    -0.4680 h1         1 7DN       0.056200
     40 H8          -1.8540    -0.7100     1.0690 h1         1 7DN       0.056200
     41 H9          -1.3930     0.7660    -1.5850 hc         1 7DN       0.066450
     42 H10         -0.2830    -0.3550    -0.8000 hc         1 7DN       0.066450
     43 H11          1.9770     1.6060     1.0550 hn         1 7DN       0.311500
     44 H12          3.2220     2.6840    -1.5130 h1         1 7DN       0.090700
     45 H13          3.4460     4.8800    -0.5490 hc         1 7DN       0.049200
     46 H14          2.4150     4.3940     0.7820 hc         1 7DN       0.049200
     47 H15          5.4720     4.3320     0.6250 hc         1 7DN       0.030700
     48 H16          4.4640     4.7200     2.0190 hc         1 7DN       0.030700
     49 H17          5.5410     2.2940     2.0610 hc         1 7DN       0.038200
     50 H18          3.7860     2.3040     2.2740 hc         1 7DN       0.038200
     51 H19          5.3080     2.0900    -0.4250 hc         1 7DN       0.073700
     52 H20          3.4670     0.0170     0.8480 hc         1 7DN       0.049700
     53 H21          4.0460    -0.0180    -0.8070 hc         1 7DN       0.049700
     54 H24          4.8740    -2.0530     2.7270 ha         1 7DN       0.080000
     55 H25          4.5410    -4.5090     2.7190 ha         1 7DN       0.082000
     56 H26          4.8570    -5.8060     0.6160 ha         1 7DN       0.085000
     57 H27          5.5150    -4.6390    -1.4780 ha         1 7DN       0.119000
     58 H28         -1.0430     3.3890     1.2770 hc         1 7DN       0.066450
     59 H29         -1.8740     3.1610    -0.2590 hc         1 7DN       0.066450
     60 H30         -9.2510    -0.4140     1.4920 ha         1 7DN       0.105000
     61 H31        -10.1580    -1.6610    -0.4540 ha         1 7DN       0.107000
     62 H32         -8.6910    -2.2180    -2.3720 ha         1 7DN       0.109000
     63 H33         -5.6430    -0.7450    -3.2000 hc         1 7DN       0.047700
     64 H34         -5.2050    -2.2750    -2.4200 hc         1 7DN       0.047700
     65 H35         -6.6100    -2.1960    -3.4890 hc         1 7DN       0.047700
     66 H2          -7.3740     0.6880     2.6230 ha         1 7DN       0.109000
     67 C19          5.5670    -0.4120     0.6760 c3         1 7DN      -0.022100
     68 H3          -4.9730     1.3500     2.6040 ha         1 7DN       0.118000
     69 H22          6.4230    -0.0930     0.0710 hc         1 7DN       0.048700
     70 H23          5.8010    -0.0990     1.7000 hc         1 7DN       0.048700
@<TRIPOS>BOND
     1     1    26 1   
     2     2     4 ar  
     3     2    29 ar  
     4     2    66 1   
     5     3    26 1   
     6     4     7 ar  
     7     4    68 1   
     8     5    10 1   
     9     5    12 1   
    10     5    27 1   
    11     5    36 1   
    12     6     7 ar  
    13     6    30 ar  
    14     7    28 1   
    15     8    27 1   
    16     8    28 1   
    17     8    37 1   
    18     8    38 1   
    19     9    10 1   
    20     9    28 1   
    21     9    39 1   
    22     9    40 1   
    23    10    41 1   
    24    10    42 1   
    25    11    12 2   
    26    12    13 1   
    27    13    14 1   
    28    13    43 1   
    29    14    15 1   
    30    14    18 1   
    31    14    44 1   
    32    15    16 1   
    33    15    45 1   
    34    15    46 1   
    35    16    17 1   
    36    16    47 1   
    37    16    48 1   
    38    17    18 1   
    39    17    49 1   
    40    17    50 1   
    41    18    19 1   
    42    18    51 1   
    43    19    52 1   
    44    19    53 1   
    45    19    67 1   
    46    20    21 ar  
    47    20    25 ar  
    48    20    67 1   
    49    21    22 ar  
    50    21    54 1   
    51    22    23 ar  
    52    22    55 1   
    53    23    24 ar  
    54    23    56 1   
    55    24    25 ar  
    56    24    57 1   
    57    25    26 1   
    58    27    58 1   
    59    27    59 1   
    60    29    30 ar  
    61    29    31 ar  
    62    30    34 ar  
    63    31    32 ar  
    64    31    60 1   
    65    32    33 ar  
    66    32    61 1   
    67    33    34 ar  
    68    33    62 1   
    69    34    35 1   
    70    35    63 1   
    71    35    64 1   
    72    35    65 1   
    73    67    69 1   
    74    67    70 1   
@<TRIPOS>SUBSTRUCTURE
     1 7DN         1 TEMP              0 ****  ****    0 ROOT
