@<TRIPOS>MOLECULE
7DN
   70    74     1     0     0
SMALL
bcc


@<TRIPOS>ATOM
      1 O1           3.7170    -2.3710    -3.2660 o          1 7DN      -0.823800
      2 C7          -6.4430     1.4210     0.4860 ca         1 7DN      -0.060000
      3 O2           5.5800    -1.2330    -2.8240 o          1 7DN      -0.823800
      4 C6          -5.3550     1.5520     1.2870 ca         1 7DN      -0.280300
      5 C1          -0.6220     1.6970     1.3060 c6         1 7DN      -0.141700
      6 N1          -4.4040    -0.4500     0.3840 nb         1 7DN      -0.755000
      7 C5          -4.3160     0.5690     1.2090 ca         1 7DN       0.691200
      8 C4          -2.7620     1.8940     2.5930 c6         1 7DN       0.207800
      9 C3          -2.1100    -0.2740     1.8010 c6         1 7DN       0.207800
     10 C2          -1.1080     0.3230     0.8200 c6         1 7DN      -0.100900
     11 O           -0.1760     2.8580    -0.7490 o          1 7DN      -0.615100
     12 C15          0.2770     2.3080     0.2470 c          1 7DN       0.666100
     13 N2           1.5920     2.1450     0.4550 ns         1 7DN      -0.558900
     14 C16          2.6190     2.5620    -0.4820 c5         1 7DN       0.116700
     15 C29          3.0570     4.0070    -0.2460 c5         1 7DN      -0.099400
     16 C28          4.0080     3.9300     0.9630 c5         1 7DN      -0.081400
     17 C27          4.5030     2.4670     1.0170 c5         1 7DN      -0.081400
     18 C17          3.9170     1.7860    -0.2300 c5         1 7DN      -0.081700
     19 C18          3.7750     0.2730    -0.1520 c3         1 7DN      -0.061400
     20 C20          4.9620    -1.9350     0.0300 ca         1 7DN      -0.063300
     21 C21          4.9950    -2.6230     1.2430 ca         1 7DN      -0.156000
     22 C22          4.7990    -3.9940     1.3120 ca         1 7DN      -0.164000
     23 C23          4.5380    -4.7040     0.1490 ca         1 7DN      -0.158000
     24 C24          4.4730    -4.0270    -1.0610 ca         1 7DN      -0.110000
     25 C25          4.6990    -2.6540    -1.1460 ca         1 7DN      -0.113600
     26 C26          4.6580    -2.0180    -2.5300 c          1 7DN       0.920200
     27 C           -1.8060     2.6030     1.6390 c6         1 7DN      -0.100900
     28 N           -3.2200     0.6360     2.0290 nh         1 7DN      -0.762300
     29 C8          -6.5550     0.3300    -0.4100 ca         1 7DN      -0.188300
     30 C9          -5.4850    -0.5950    -0.4110 ca         1 7DN       0.457600
     31 C13         -7.6590     0.1450    -1.2640 ca         1 7DN      -0.103000
     32 C12         -7.6960    -0.9370    -2.1020 ca         1 7DN      -0.144000
     33 C11         -6.6320    -1.8590    -2.1070 ca         1 7DN      -0.121000
     34 C10         -5.5360    -1.7150    -1.2860 ca         1 7DN      -0.119600
     35 C14         -4.4110    -2.7040    -1.2960 c3         1 7DN      -0.037800
     36 H4          -0.0430     1.5410     2.2250 hc         1 7DN       0.043700
     37 H5          -2.2500     1.6690     3.5330 h1         1 7DN       0.056200
     38 H6          -3.5950     2.5400     2.8560 h1         1 7DN       0.056200
     39 H7          -2.4840    -1.2260     1.4340 h1         1 7DN       0.056200
     40 H8          -1.6250    -0.4560     2.7640 h1         1 7DN       0.056200
     41 H9          -1.5810     0.4190    -0.1620 hc         1 7DN       0.066450
     42 H10         -0.2610    -0.3580     0.7070 hc         1 7DN       0.066450
     43 H11          1.8810     1.7200     1.3220 hn         1 7DN       0.311500
     44 H12          2.2430     2.4010    -1.4940 h1         1 7DN       0.090700
     45 H13          3.5930     4.3580    -1.1310 hc         1 7DN       0.049200
     46 H14          2.2150     4.6830    -0.0930 hc         1 7DN       0.049200
     47 H15          4.8320     4.6350     0.8610 hc         1 7DN       0.030700
     48 H16          3.4870     4.1960     1.8840 hc         1 7DN       0.030700
     49 H17          5.5910     2.3960     1.0390 hc         1 7DN       0.038200
     50 H18          4.1470     1.9680     1.9250 hc         1 7DN       0.038200
     51 H19          4.5700     2.0150    -1.0800 hc         1 7DN       0.073700
     52 H20          3.1060    -0.0070     0.6680 hc         1 7DN       0.049700
     53 H21          3.2990    -0.0860    -1.0690 hc         1 7DN       0.049700
     54 H24          5.1840    -2.0670     2.1550 ha         1 7DN       0.098000
     55 H25          4.8440    -4.5020     2.2670 ha         1 7DN       0.100000
     56 H26          4.3800    -5.7740     0.1830 ha         1 7DN       0.103000
     57 H27          4.2530    -4.5810    -1.9650 ha         1 7DN       0.137000
     58 H28         -1.4570     3.5300     2.1000 hc         1 7DN       0.066450
     59 H29         -2.3370     2.8770     0.7240 hc         1 7DN       0.066450
     60 H30         -8.4700     0.8640    -1.2470 ha         1 7DN       0.123000
     61 H31         -8.5390    -1.0910    -2.7640 ha         1 7DN       0.125000
     62 H32         -6.6790    -2.7080    -2.7780 ha         1 7DN       0.127000
     63 H33         -3.4580    -2.2220    -1.5140 hc         1 7DN       0.047700
     64 H34         -4.2990    -3.1870    -0.3240 hc         1 7DN       0.047700
     65 H35         -4.5810    -3.4790    -2.0410 hc         1 7DN       0.047700
     66 H2          -7.2390     2.1550     0.5350 ha         1 7DN       0.127000
     67 C19          5.1170    -0.4370     0.0440 c3         1 7DN      -0.022100
     68 H3          -5.3010     2.3840     1.9720 ha         1 7DN       0.136000
     69 H22          5.8100    -0.1200    -0.7340 hc         1 7DN       0.048700
     70 H23          5.5450    -0.1340     1.0030 hc         1 7DN       0.048700
@<TRIPOS>BOND
     1     1    26 1   
     2     2     4 ar  
     3     2    29 ar  
     4     2    66 1   
     5     3    26 1   
     6     4     7 ar  
     7     4    68 1   
     8     5    10 1   
     9     5    12 1   
    10     5    27 1   
    11     5    36 1   
    12     6     7 ar  
    13     6    30 ar  
    14     7    28 1   
    15     8    27 1   
    16     8    28 1   
    17     8    37 1   
    18     8    38 1   
    19     9    10 1   
    20     9    28 1   
    21     9    39 1   
    22     9    40 1   
    23    10    41 1   
    24    10    42 1   
    25    11    12 2   
    26    12    13 1   
    27    13    14 1   
    28    13    43 1   
    29    14    15 1   
    30    14    18 1   
    31    14    44 1   
    32    15    16 1   
    33    15    45 1   
    34    15    46 1   
    35    16    17 1   
    36    16    47 1   
    37    16    48 1   
    38    17    18 1   
    39    17    49 1   
    40    17    50 1   
    41    18    19 1   
    42    18    51 1   
    43    19    52 1   
    44    19    53 1   
    45    19    67 1   
    46    20    21 ar  
    47    20    25 ar  
    48    20    67 1   
    49    21    22 ar  
    50    21    54 1   
    51    22    23 ar  
    52    22    55 1   
    53    23    24 ar  
    54    23    56 1   
    55    24    25 ar  
    56    24    57 1   
    57    25    26 1   
    58    27    58 1   
    59    27    59 1   
    60    29    30 ar  
    61    29    31 ar  
    62    30    34 ar  
    63    31    32 ar  
    64    31    60 1   
    65    32    33 ar  
    66    32    61 1   
    67    33    34 ar  
    68    33    62 1   
    69    34    35 1   
    70    35    63 1   
    71    35    64 1   
    72    35    65 1   
    73    67    69 1   
    74    67    70 1   
@<TRIPOS>SUBSTRUCTURE
     1 7DN         1 TEMP              0 ****  ****    0 ROOT
