@<TRIPOS>MOLECULE
7DP
   27    27     1     0     0
SMALL
No Charge or Current Charge


@<TRIPOS>ATOM
      1 C10          4.2290     0.1220     0.4840 c          1 7DP       0.598100
      2 C11         -3.3300    -0.5710     0.2760 ca         1 7DP       0.124100
      3 O01          4.1080     0.2190     1.6960 o          1 7DP      -0.603100
      4 N02          3.1520    -0.0440    -0.3540 ns         1 7DP      -0.516900
      5 C03          0.7850    -0.3240    -1.0770 c3         1 7DP      -0.044100
      6 C04          1.7610    -0.1250     0.0970 c3         1 7DP       0.106000
      7 C05         -0.6600    -0.4090    -0.6070 ca         1 7DP      -0.083300
      8 C06         -1.4410     0.7590    -0.4980 ca         1 7DP      -0.154000
      9 C07         -1.2230    -1.6560    -0.2690 ca         1 7DP      -0.099000
     10 C08         -2.7740     0.6800    -0.0590 ca         1 7DP       0.047100
     11 C09         -2.5560    -1.7370     0.1710 ca         1 7DP      -0.120000
     12 C12          5.5820     0.1770    -0.2140 c3         1 7DP      -0.180100
     13 O14         -3.5320     1.8170     0.0460 oh         1 7DP      -0.557100
     14 H1           3.3500    -0.1150    -1.3450 hn         1 7DP       0.309500
     15 H2           0.9030     0.5040    -1.7870 hc         1 7DP       0.048700
     16 H3           1.0600    -1.2370    -1.6200 hc         1 7DP       0.048700
     17 H4           1.6640    -0.9630     0.8000 h1         1 7DP       0.055200
     18 H5           1.5070     0.8010     0.6300 h1         1 7DP       0.055200
     19 H6          -1.0060     1.7230    -0.7550 ha         1 7DP       0.113000
     20 H7          -0.6270    -2.5640    -0.3460 ha         1 7DP       0.117000
     21 H8          -2.9870    -2.7010     0.4310 ha         1 7DP       0.132000
     22 H9           5.5600     0.9680    -0.9730 hc         1 7DP       0.059367
     23 H10          6.4140     0.3110     0.4860 hc         1 7DP       0.059367
     24 H11          5.7060    -0.7250    -0.8230 hc         1 7DP       0.059367
     25 H12         -4.9570     0.2870     0.6950 ho         1 7DP       0.482000
     26 H13         -2.9870     2.5890    -0.2260 ho         1 7DP       0.475000
     27 O13         -4.6240    -0.6390     0.7020 oh         1 7DP      -0.534100
@<TRIPOS>BOND
     1     1     3 2   
     2     1     4 1   
     3     1    12 1   
     4     2    10 ar  
     5     2    11 ar  
     6     2    27 1   
     7     4     6 1   
     8     4    14 1   
     9     5     6 1   
    10     5     7 1   
    11     5    15 1   
    12     5    16 1   
    13     6    17 1   
    14     6    18 1   
    15     7     8 ar  
    16     7     9 ar  
    17     8    10 ar  
    18     8    19 1   
    19     9    11 ar  
    20     9    20 1   
    21    10    13 1   
    22    11    21 1   
    23    12    22 1   
    24    12    23 1   
    25    12    24 1   
    26    13    26 1   
    27    25    27 1   
@<TRIPOS>SUBSTRUCTURE
     1 7DP         1 TEMP              0 ****  ****    0 ROOT
