@<TRIPOS>MOLECULE
7DP
   27    27     1     0     0
SMALL
abcg2


@<TRIPOS>ATOM
      1 C10          4.1270     0.2790     0.4330 c          1 7DP       0.598100
      2 C11         -3.2800    -0.5300     0.2510 ca         1 7DP       0.124100
      3 O01          3.9540     0.6010     1.6010 o          1 7DP      -0.603100
      4 N02          3.1100    -0.0660    -0.3740 ns         1 7DP      -0.516900
      5 C03          0.8090    -0.4170    -1.1050 c3         1 7DP      -0.044100
      6 C04          1.7360    -0.1330     0.0730 c3         1 7DP       0.106000
      7 C05         -0.6280    -0.4650    -0.6670 ca         1 7DP      -0.083300
      8 C06         -1.3350     0.7170    -0.4430 ca         1 7DP      -0.154000
      9 C07         -1.2690    -1.6730    -0.4290 ca         1 7DP      -0.099000
     10 C08         -2.6440     0.6950     0.0070 ca         1 7DP       0.047100
     11 C09         -2.5830    -1.7040     0.0260 ca         1 7DP      -0.120000
     12 C12          5.4940     0.2190    -0.2050 c3         1 7DP      -0.180100
     13 O14         -3.3820     1.8060     0.2350 oh         1 7DP      -0.557100
     14 H1           3.3190    -0.3650    -1.3130 hn         1 7DP       0.309500
     15 H2           0.9500     0.3540    -1.8690 hc         1 7DP       0.048700
     16 H3           1.0860    -1.3720    -1.5580 hc         1 7DP       0.048700
     17 H4           1.6140    -0.9140     0.8300 h1         1 7DP       0.055200
     18 H5           1.4550     0.8140     0.5410 h1         1 7DP       0.055200
     19 H6          -0.8590     1.6740    -0.6340 ha         1 7DP       0.113000
     20 H7          -0.7460    -2.6060    -0.6010 ha         1 7DP       0.117000
     21 H8          -3.0730    -2.6520     0.2120 ha         1 7DP       0.132000
     22 H9           5.4930     0.6460    -1.2080 hc         1 7DP       0.059367
     23 H10          6.2210     0.7490     0.4040 hc         1 7DP       0.059367
     24 H11          5.8160    -0.8200    -0.2940 hc         1 7DP       0.059367
     25 H12         -4.9060     0.2980     0.8290 ho         1 7DP       0.482000
     26 H13         -2.8490     2.6000     0.1220 ho         1 7DP       0.475000
     27 O13         -4.5550    -0.5900     0.6980 oh         1 7DP      -0.534100
@<TRIPOS>BOND
     1     1     3 2   
     2     1     4 1   
     3     1    12 1   
     4     2    10 ar  
     5     2    11 ar  
     6     2    27 1   
     7     4     6 1   
     8     4    14 1   
     9     5     6 1   
    10     5     7 1   
    11     5    15 1   
    12     5    16 1   
    13     6    17 1   
    14     6    18 1   
    15     7     8 ar  
    16     7     9 ar  
    17     8    10 ar  
    18     8    19 1   
    19     9    11 ar  
    20     9    20 1   
    21    10    13 1   
    22    11    21 1   
    23    12    22 1   
    24    12    23 1   
    25    12    24 1   
    26    13    26 1   
    27    25    27 1   
@<TRIPOS>SUBSTRUCTURE
     1 7DP         1 TEMP              0 ****  ****    0 ROOT
