@<TRIPOS>MOLECULE
7DQ
   49    51     1     0     0
SMALL
No Charge or Current Charge


@<TRIPOS>ATOM
      1 C17         -5.0710    -2.8710    -1.2010 ca         1 7DQ       0.298000
      2 C20         -5.5110    -1.9660    -0.2150 ca         1 7DQ      -0.040000
      3 C21         -4.5870    -1.0250     0.2870 ca         1 7DQ      -0.192000
      4 C22         -1.3500     0.5040    -0.7720 c6         1 7DQ       0.195300
      5 C26          5.1750     0.3520     1.1880 ca         1 7DQ      -0.106000
      6 C01          5.8840    -2.4710    -0.9440 c3         1 7DQ      -0.084100
      7 C03          7.5130    -0.5550    -1.4050 c3         1 7DQ      -0.084100
      8 C04          5.3590    -0.1230    -0.1250 ca         1 7DQ      -0.066300
      9 C05          4.5100     0.3510    -1.1460 ca         1 7DQ      -0.106000
     10 C06          3.4960     1.2800    -0.8580 ca         1 7DQ      -0.091500
     11 C07          3.3100     1.7470     0.4570 ca         1 7DQ      -0.075300
     12 C08          2.2040     2.7520     0.7780 c3         1 7DQ      -0.106100
     13 C11         -1.0600     1.0170     2.0960 c6         1 7DQ       0.082000
     14 C12         -2.4260     0.6740     1.4430 c6         1 7DQ       0.195300
     15 C14         -3.2710    -1.0380    -0.2210 ca         1 7DQ       0.587900
     16 C18         -5.9590    -3.8580    -1.7600 cg         1 7DQ       0.232000
     17 C23          0.0320     0.8460    -0.1520 c6         1 7DQ       0.082000
     18 C25          4.1610     1.2810     1.4770 ca         1 7DQ      -0.091500
     19 N10         -0.0190     1.5580     1.1660 n          1 7DQ      -0.418800
     20 N13         -2.2620    -0.1440     0.2120 nh         1 7DQ      -0.773300
     21 N15         -2.9100    -1.9350    -1.1730 nb         1 7DQ      -0.415000
     22 N16         -3.7930    -2.8390    -1.6580 nb         1 7DQ      -0.230000
     23 N19         -6.6900    -4.6550    -2.2070 n1         1 7DQ      -0.437000
     24 O24          1.3040     2.1880     2.9320 o          1 7DQ      -0.582100
     25 H1          -6.5360    -1.9910     0.1450 ha         1 7DQ       0.139000
     26 H2          -4.8980    -0.3060     1.0370 ha         1 7DQ       0.134000
     27 H3          -1.8080     1.4340    -1.1400 h1         1 7DQ       0.065700
     28 H4          -1.1770    -0.1340    -1.6500 h1         1 7DQ       0.065700
     29 H5           5.8200     0.0030     1.9920 ha         1 7DQ       0.111500
     30 H6           6.6810    -3.2130    -1.0790 hc         1 7DQ       0.035033
     31 H7           5.1610    -2.8770    -0.2270 hc         1 7DQ       0.035033
     32 H8           5.3750    -2.3380    -1.9070 hc         1 7DQ       0.035033
     33 H9           6.9990    -1.3660     0.5020 hc         1 7DQ       0.048700
     34 H10          7.9280     0.3800    -1.0090 hc         1 7DQ       0.035033
     35 H11          8.3400    -1.2600    -1.5480 hc         1 7DQ       0.035033
     36 H12          7.0690    -0.3450    -2.3850 hc         1 7DQ       0.035033
     37 H13          4.6350     0.0020    -2.1680 ha         1 7DQ       0.111500
     38 H14          2.8580     1.6360    -1.6640 ha         1 7DQ       0.108500
     39 H15          2.6500     3.6220     1.2730 hc         1 7DQ       0.064200
     40 H16          1.7290     3.0790    -0.1520 hc         1 7DQ       0.064200
     41 H17         -1.2390     1.7370     2.9070 h1         1 7DQ       0.068200
     42 H18         -0.6620     0.1040     2.5610 h1         1 7DQ       0.068200
     43 H19         -3.0270     0.1410     2.1940 h1         1 7DQ       0.065700
     44 H20         -2.9520     1.6110     1.2040 h1         1 7DQ       0.065700
     45 H21          0.5910    -0.0910    -0.0150 h1         1 7DQ       0.068200
     46 H22          0.5810     1.4380    -0.8940 h1         1 7DQ       0.068200
     47 H23          4.0370     1.6360     2.4970 ha         1 7DQ       0.108500
     48 C09          1.1480     2.1390     1.7180 c          1 7DQ       0.605100
     49 C02          6.4650    -1.1360    -0.4290 c3         1 7DQ      -0.017400
@<TRIPOS>BOND
     1     1     2 ar  
     2     1    16 1   
     3     1    22 ar  
     4     2     3 ar  
     5     2    25 1   
     6     3    15 ar  
     7     3    26 1   
     8     4    17 1   
     9     4    20 1   
    10     4    27 1   
    11     4    28 1   
    12     5     8 ar  
    13     5    18 ar  
    14     5    29 1   
    15     6    30 1   
    16     6    31 1   
    17     6    32 1   
    18     6    49 1   
    19     7    34 1   
    20     7    35 1   
    21     7    36 1   
    22     7    49 1   
    23     8     9 ar  
    24     8    49 1   
    25     9    10 ar  
    26     9    37 1   
    27    10    11 ar  
    28    10    38 1   
    29    11    12 1   
    30    11    18 ar  
    31    12    39 1   
    32    12    40 1   
    33    12    48 1   
    34    13    14 1   
    35    13    19 1   
    36    13    41 1   
    37    13    42 1   
    38    14    20 1   
    39    14    43 1   
    40    14    44 1   
    41    15    20 1   
    42    15    21 ar  
    43    16    23 3   
    44    17    19 1   
    45    17    45 1   
    46    17    46 1   
    47    18    47 1   
    48    19    48 1   
    49    21    22 ar  
    50    24    48 2   
    51    33    49 1   
@<TRIPOS>SUBSTRUCTURE
     1 7DQ         1 TEMP              0 ****  ****    0 ROOT
