@<TRIPOS>MOLECULE
7DQ
   49    51     1     0     0
SMALL
bcc


@<TRIPOS>ATOM
      1 C17         -6.7900     0.2020    -0.1120 ca         1 7DQ       0.363300
      2 C20         -6.3290    -0.6660     0.8850 ca         1 7DQ      -0.123300
      3 C21         -4.9860    -0.8730     0.9690 ca         1 7DQ      -0.275300
      4 C22         -1.9780     0.4720    -0.8590 c6         1 7DQ       0.195300
      5 C26          5.0750     1.5220     0.6080 ca         1 7DQ      -0.124000
      6 C01          7.9340    -0.4580     1.5460 c3         1 7DQ      -0.084100
      7 C03          8.4030     0.9480    -0.4880 c3         1 7DQ      -0.084100
      8 C04          6.0360     0.5780     0.2630 ca         1 7DQ      -0.066300
      9 C05          5.6300    -0.5080    -0.5140 ca         1 7DQ      -0.124000
     10 C06          4.3140    -0.6430    -0.9240 ca         1 7DQ      -0.109500
     11 C07          3.3550     0.3040    -0.5740 ca         1 7DQ      -0.075300
     12 C08          1.9310     0.1530    -1.0170 c3         1 7DQ      -0.106100
     13 C11         -0.9690    -1.9230     0.3310 c6         1 7DQ       0.082000
     14 C12         -2.0690    -1.1070     0.9960 c6         1 7DQ       0.195300
     15 C14         -4.1540    -0.2020     0.0390 ca         1 7DQ       0.653200
     16 C18         -8.1800     0.4820    -0.2780 cg         1 7DQ       0.142800
     17 C23         -0.8820    -0.3680    -1.4970 c6         1 7DQ       0.082000
     18 C25          3.7540     1.3870     0.1970 ca         1 7DQ      -0.109500
     19 N10         -0.1260    -1.0730    -0.4830 n          1 7DQ      -0.485800
     20 N13         -2.8140    -0.3490     0.0050 nh         1 7DQ      -0.773300
     21 N15         -4.6910     0.6280    -0.8760 nb         1 7DQ      -0.415000
     22 N16         -5.9710     0.8170    -0.9480 nb         1 7DQ      -0.230000
     23 N19         -9.3040     0.7010    -0.4030 n1         1 7DQ      -0.347800
     24 O24          1.6950    -1.3740     0.8110 o          1 7DQ      -0.582100
     25 H1          -7.0150    -1.1490     1.5670 ha         1 7DQ       0.157000
     26 H2          -4.5950    -1.5280     1.7310 ha         1 7DQ       0.152000
     27 H3          -1.5290     1.2790    -0.2670 h1         1 7DQ       0.065700
     28 H4          -2.5840     0.9250    -1.6360 h1         1 7DQ       0.065700
     29 H5           5.3600     2.3790     1.2080 ha         1 7DQ       0.129500
     30 H6           8.9430    -0.2910     1.9280 hc         1 7DQ       0.035033
     31 H7           7.2770    -0.6230     2.4010 hc         1 7DQ       0.035033
     32 H8           7.9550    -1.3770     0.9580 hc         1 7DQ       0.035033
     33 H9           7.5250     1.6250     1.3360 hc         1 7DQ       0.048700
     34 H10          8.1070     1.8220    -1.0700 hc         1 7DQ       0.035033
     35 H11          9.4300     1.1010    -0.1530 hc         1 7DQ       0.035033
     36 H12          8.3980     0.0840    -1.1550 hc         1 7DQ       0.035033
     37 H13          6.3500    -1.2650    -0.8040 ha         1 7DQ       0.129500
     38 H14          4.0300    -1.4970    -1.5280 ha         1 7DQ       0.126500
     39 H15          1.4300     1.1250    -0.9990 hc         1 7DQ       0.064200
     40 H16          1.8920    -0.1850    -2.0570 hc         1 7DQ       0.064200
     41 H17         -0.3760    -2.4180     1.0940 h1         1 7DQ       0.068200
     42 H18         -1.4180    -2.6920    -0.3040 h1         1 7DQ       0.068200
     43 H19         -2.7170    -1.7920     1.5330 h1         1 7DQ       0.065700
     44 H20         -1.6280    -0.4240     1.7300 h1         1 7DQ       0.065700
     45 H21         -1.3330    -1.0970    -2.1770 h1         1 7DQ       0.068200
     46 H22         -0.2420     0.2750    -2.0930 h1         1 7DQ       0.068200
     47 H23          3.0270     2.1400     0.4810 ha         1 7DQ       0.126500
     48 C09          1.1610    -0.8270    -0.1410 c          1 7DQ       0.672100
     49 C02          7.4730     0.7320     0.7060 c3         1 7DQ      -0.017400
@<TRIPOS>BOND
     1     1     2 ar  
     2     1    16 1   
     3     1    22 ar  
     4     2     3 ar  
     5     2    25 1   
     6     3    15 ar  
     7     3    26 1   
     8     4    17 1   
     9     4    20 1   
    10     4    27 1   
    11     4    28 1   
    12     5     8 ar  
    13     5    18 ar  
    14     5    29 1   
    15     6    30 1   
    16     6    31 1   
    17     6    32 1   
    18     6    49 1   
    19     7    34 1   
    20     7    35 1   
    21     7    36 1   
    22     7    49 1   
    23     8     9 ar  
    24     8    49 1   
    25     9    10 ar  
    26     9    37 1   
    27    10    11 ar  
    28    10    38 1   
    29    11    12 1   
    30    11    18 ar  
    31    12    39 1   
    32    12    40 1   
    33    12    48 1   
    34    13    14 1   
    35    13    19 1   
    36    13    41 1   
    37    13    42 1   
    38    14    20 1   
    39    14    43 1   
    40    14    44 1   
    41    15    20 1   
    42    15    21 ar  
    43    16    23 3   
    44    17    19 1   
    45    17    45 1   
    46    17    46 1   
    47    18    47 1   
    48    19    48 1   
    49    21    22 ar  
    50    24    48 2   
    51    33    49 1   
@<TRIPOS>SUBSTRUCTURE
     1 7DQ         1 TEMP              0 ****  ****    0 ROOT
