@<TRIPOS>MOLECULE
7DR
   49    51     1     0     0
SMALL
abcg2


@<TRIPOS>ATOM
      1 N1           4.4080    -0.7270    -1.9210 nb         1 7DR      -0.338000
      2 C2           5.5810    -0.6040    -1.3000 ca         1 7DR       0.429900
      3 N3           5.7660    -0.3770     0.0050 nb         1 7DR      -0.291000
      4 C4           4.6770    -0.2610     0.7530 ca         1 7DR       0.221300
      5 C5           3.3940    -0.3680     0.2190 ca         1 7DR      -0.217000
      6 C6           3.3160    -0.6120    -1.1770 ca         1 7DR       0.434900
      7 CAA          4.8250     1.5480     2.4670 c3         1 7DR      -0.084100
      8 CAB         -1.0660    -3.4400    -1.6430 c3         1 7DR       0.146900
      9 NAC          6.6850    -0.6930    -2.0620 nv         1 7DR      -1.065900
     10 NAD          2.1270    -0.7620    -1.7840 nv         1 7DR      -1.066900
     11 CAE          1.1470    -0.1620     1.5530 c1         1 7DR      -0.162100
     12 CAF          2.2080    -0.2550     0.9850 cg         1 7DR      -0.082000
     13 CAG         -6.9160     2.7450     0.2970 ca         1 7DR      -0.105000
     14 CAH         -6.3860     2.3000    -0.9070 ca         1 7DR      -0.112000
     15 CAI         -6.3050     2.3800     1.4890 ca         1 7DR      -0.112000
     16 CAJ         -5.2550     1.4980    -0.9190 ca         1 7DR      -0.096500
     17 CAK         -5.1730     1.5780     1.4770 ca         1 7DR      -0.096500
     18 CAL         -1.1690    -1.3770     0.2480 ca         1 7DR      -0.198000
     19 CAM         -2.3990     0.4690     1.1820 ca         1 7DR      -0.136000
     20 CAN         -3.3190    -0.7700    -0.6610 ca         1 7DR      -0.137000
     21 CAO          4.8800     0.0420     2.2060 c3         1 7DR      -0.135700
     22 CAP         -0.1680    -0.1070     2.1780 c3         1 7DR       0.062000
     23 OAS         -2.1720    -2.5600    -1.6050 os         1 7DR      -0.343100
     24 CAU         -1.2770    -0.3410     1.1740 ca         1 7DR      -0.042300
     25 CAW         -2.1880    -1.5890    -0.6730 ca         1 7DR       0.140100
     26 CAX         -4.6320     1.1230     0.2730 cp         1 7DR      -0.038000
     27 CAY         -3.4330     0.2590     0.2630 cp         1 7DR       0.005000
     28 HAA          5.5730     2.0750     1.8740 hc         1 7DR       0.038700
     29 HAAA         3.8450     1.9570     2.2190 hc         1 7DR       0.038700
     30 HAAB         5.0200     1.7610     3.5180 hc         1 7DR       0.038700
     31 HAB         -0.9600    -4.0020    -0.7120 h1         1 7DR       0.042700
     32 HABA        -1.2550    -4.1390    -2.4550 h1         1 7DR       0.042700
     33 HABB        -0.1290    -2.9140    -1.8460 h1         1 7DR       0.042700
     34 HNAC         6.6090    -1.0110    -3.0130 hn         1 7DR       0.498500
     35 HNAA         7.5840    -0.7530    -1.6190 hn         1 7DR       0.498500
     36 HNAD         2.0980    -0.7660    -2.7900 hn         1 7DR       0.494500
     37 HNAB         1.2840    -0.4850    -1.3080 hn         1 7DR       0.494500
     38 HAG         -7.7990     3.3710     0.3070 ha         1 7DR       0.113000
     39 HAH         -6.8510     2.5830    -1.8430 ha         1 7DR       0.113000
     40 HAI         -6.7140     2.7130     2.4350 ha         1 7DR       0.113000
     41 HAJ         -4.8410     1.1790    -1.8670 ha         1 7DR       0.115000
     42 HAK         -4.7190     1.2870     2.4160 ha         1 7DR       0.115000
     43 HAL         -0.2880    -2.0060     0.2660 ha         1 7DR       0.126000
     44 HAM         -2.4630     1.2880     1.8890 ha         1 7DR       0.118000
     45 HAN         -4.1120    -0.9630    -1.3720 ha         1 7DR       0.130000
     46 HAO          4.1180    -0.4610     2.8040 hc         1 7DR       0.060700
     47 HAOA         5.8510    -0.3500     2.5110 hc         1 7DR       0.060700
     48 HAP         -0.2270    -0.8610     2.9700 hc         1 7DR       0.064700
     49 HAPA        -0.3130     0.8580     2.6680 hc         1 7DR       0.064700
@<TRIPOS>BOND
     1     1     2 ar  
     2     1     6 ar  
     3     2     3 ar  
     4     2     9 1   
     5     3     4 ar  
     6     4     5 ar  
     7     4    21 1   
     8     5     6 ar  
     9     5    12 1   
    10     6    10 1   
    11     7    21 1   
    12     7    28 1   
    13     7    29 1   
    14     7    30 1   
    15     8    23 1   
    16     8    31 1   
    17     8    32 1   
    18     8    33 1   
    19     9    34 1   
    20     9    35 1   
    21    10    36 1   
    22    10    37 1   
    23    11    12 3   
    24    11    22 1   
    25    13    14 ar  
    26    13    15 ar  
    27    13    38 1   
    28    14    16 ar  
    29    14    39 1   
    30    15    17 ar  
    31    15    40 1   
    32    16    26 ar  
    33    16    41 1   
    34    17    26 ar  
    35    17    42 1   
    36    18    24 ar  
    37    18    25 ar  
    38    18    43 1   
    39    19    24 ar  
    40    19    27 ar  
    41    19    44 1   
    42    20    25 ar  
    43    20    27 ar  
    44    20    45 1   
    45    21    46 1   
    46    21    47 1   
    47    22    24 1   
    48    22    48 1   
    49    22    49 1   
    50    23    25 1   
    51    26    27 1   
@<TRIPOS>SUBSTRUCTURE
     1 7DR         1 TEMP              0 ****  ****    0 ROOT
