@<TRIPOS>MOLECULE
7DR
   49    51     1     0     0
SMALL
No Charge or Current Charge


@<TRIPOS>ATOM
      1 N1           5.6040    -0.2210    -0.3570 nb         1 7DR      -0.338000
      2 C2           5.3230     1.0770    -0.4940 ca         1 7DR       0.429900
      3 N3           4.1650     1.7000    -0.2500 nb         1 7DR      -0.291000
      4 C4           3.1480     0.9280     0.1860 ca         1 7DR       0.221300
      5 C5           3.3200    -0.4680     0.3690 ca         1 7DR      -0.217000
      6 C6           4.5970    -0.9860     0.0750 ca         1 7DR       0.434900
      7 CAA          0.8020     1.5100    -0.6800 c3         1 7DR      -0.084100
      8 CAB         -3.4380    -4.0710    -2.1450 c3         1 7DR       0.146900
      9 NAC          6.3370     1.8550    -0.9310 nv         1 7DR      -1.065900
     10 NAD          4.9090    -2.3040     0.2000 nv         1 7DR      -1.066900
     11 CAE          1.2820    -1.9670     1.1710 c1         1 7DR      -0.162100
     12 CAF          2.2350    -1.3050     0.8140 cg         1 7DR      -0.082000
     13 CAG         -3.5710     4.0640     1.5410 ca         1 7DR      -0.105000
     14 CAH         -3.6970     3.5990     0.2210 ca         1 7DR      -0.112000
     15 CAI         -3.1300     3.1930     2.5500 ca         1 7DR      -0.112000
     16 CAJ         -3.3830     2.2650    -0.0890 ca         1 7DR      -0.096500
     17 CAK         -2.8140     1.8590     2.2390 ca         1 7DR      -0.096500
     18 CAL         -1.8850    -2.7240    -0.0830 ca         1 7DR      -0.198000
     19 CAM         -1.5120    -0.7080     1.2240 ca         1 7DR      -0.136000
     20 CAN         -3.3090    -0.7760    -0.4010 ca         1 7DR      -0.137000
     21 CAO          1.8300     1.6580     0.4630 c3         1 7DR      -0.135700
     22 CAP          0.0590    -2.6750     1.5690 c3         1 7DR       0.062000
     23 OAS         -3.7230    -2.7310    -1.7010 os         1 7DR      -0.343100
     24 CAU         -1.1490    -2.0290     0.8960 ca         1 7DR      -0.042300
     25 CAW         -2.9710    -2.0980    -0.7320 ca         1 7DR       0.140100
     26 CAX         -2.9350     1.3660     0.9130 cp         1 7DR      -0.038000
     27 CAY         -2.5880    -0.0520     0.5800 cp         1 7DR       0.005000
     28 HAA          1.2070     1.9090    -1.6190 hc         1 7DR       0.038700
     29 HAAA         0.5380     0.4570    -0.8380 hc         1 7DR       0.038700
     30 HAAB        -0.1170     2.0590    -0.4410 hc         1 7DR       0.038700
     31 HAB         -3.5220    -4.7850    -1.3150 h1         1 7DR       0.042700
     32 HABA        -4.1490    -4.3730    -2.9260 h1         1 7DR       0.042700
     33 HABB        -2.4250    -4.1350    -2.5660 h1         1 7DR       0.042700
     34 HNAC         7.2790     1.4720    -0.8990 hn         1 7DR       0.498500
     35 HNAA         6.2500     2.8640    -0.8300 hn         1 7DR       0.498500
     36 HNAD         5.7540    -2.6400    -0.2540 hn         1 7DR       0.494500
     37 HNAB         4.1460    -2.9690     0.3000 hn         1 7DR       0.494500
     38 HAG         -3.8140     5.0970     1.7810 ha         1 7DR       0.113000
     39 HAH         -4.0350     4.2740    -0.5630 ha         1 7DR       0.113000
     40 HAI         -3.0340     3.5500     3.5740 ha         1 7DR       0.113000
     41 HAJ         -3.4730     1.9290    -1.1200 ha         1 7DR       0.115000
     42 HAK         -2.4840     1.1980     3.0370 ha         1 7DR       0.115000
     43 HAL         -1.5970    -3.7410    -0.3330 ha         1 7DR       0.126000
     44 HAM         -0.9250    -0.1700     1.9650 ha         1 7DR       0.118000
     45 HAN         -4.1490    -0.3110    -0.9090 ha         1 7DR       0.130000
     46 HAO          1.3820     1.2950     1.3960 hc         1 7DR       0.060700
     47 HAOA         2.0170     2.7280     0.6250 hc         1 7DR       0.060700
     48 HAP          0.1510    -3.7340     1.2970 hc         1 7DR       0.064700
     49 HAPA        -0.0420    -2.6350     2.6600 hc         1 7DR       0.064700
@<TRIPOS>BOND
     1     1     2 ar  
     2     1     6 ar  
     3     2     3 ar  
     4     2     9 1   
     5     3     4 ar  
     6     4     5 ar  
     7     4    21 1   
     8     5     6 ar  
     9     5    12 1   
    10     6    10 1   
    11     7    21 1   
    12     7    28 1   
    13     7    29 1   
    14     7    30 1   
    15     8    23 1   
    16     8    31 1   
    17     8    32 1   
    18     8    33 1   
    19     9    34 1   
    20     9    35 1   
    21    10    36 1   
    22    10    37 1   
    23    11    12 3   
    24    11    22 1   
    25    13    14 ar  
    26    13    15 ar  
    27    13    38 1   
    28    14    16 ar  
    29    14    39 1   
    30    15    17 ar  
    31    15    40 1   
    32    16    26 ar  
    33    16    41 1   
    34    17    26 ar  
    35    17    42 1   
    36    18    24 ar  
    37    18    25 ar  
    38    18    43 1   
    39    19    24 ar  
    40    19    27 ar  
    41    19    44 1   
    42    20    25 ar  
    43    20    27 ar  
    44    20    45 1   
    45    21    46 1   
    46    21    47 1   
    47    22    24 1   
    48    22    48 1   
    49    22    49 1   
    50    23    25 1   
    51    26    27 1   
@<TRIPOS>SUBSTRUCTURE
     1 7DR         1 TEMP              0 ****  ****    0 ROOT
