@<TRIPOS>MOLECULE
7DS
   68    72     1     0     0
SMALL
No Charge or Current Charge


@<TRIPOS>ATOM
      1 C13          4.9880    -0.3000     0.2290 ce         1 7DS      -0.086200
      2 C18          0.3440     1.5690     0.6550 c3         1 7DS       0.093400
      3 C15          2.6210     0.4770     0.5770 c          1 7DS       0.594300
      4 C19         -0.6950     0.7450    -0.1030 cc         1 7DS       0.391800
      5 C20          0.0140     3.0820     0.7520 c3         1 7DS      -0.050200
      6 C21         -4.0160    -0.4820    -0.7260 ca         1 7DS      -0.149500
      7 C22         -4.4260    -1.7570    -1.1730 ca         1 7DS      -0.056000
      8 C23         -5.7670    -2.1640    -1.0890 ca         1 7DS      -0.146000
      9 C24         -6.7400    -1.3030    -0.5490 ca         1 7DS       0.010000
     10 C34         -3.5540     4.4310     1.8370 c3         1 7DS      -0.031200
     11 C33         -2.2790     4.1150     1.0810 c2         1 7DS      -0.218200
     12 C2           8.7450    -0.8750    -0.2620 ca         1 7DS      -0.096000
     13 C3           8.9230    -0.3850    -1.5660 ca         1 7DS      -0.086000
     14 C4           7.8280     0.1320    -2.2710 ca         1 7DS       0.126000
     15 C5           6.5570     0.1600    -1.6780 ca         1 7DS      -0.090000
     16 C6           6.3600    -0.3270    -0.3680 ca         1 7DS      -0.028800
     17 C7           7.4720    -0.8510     0.3450 ca         1 7DS       0.011800
     18 N8           7.3430    -1.3360     1.6480 na         1 7DS      -0.003500
     19 C9           7.6410    -2.6070     2.0440 cc         1 7DS       0.393400
     20 N10          7.5020    -2.6070     3.3580 nd         1 7DS      -0.375000
     21 N11          7.1480    -1.3180     3.7210 nd         1 7DS      -0.033000
     22 N12          7.0750    -0.5180     2.6870 nc         1 7DS      -0.187800
     23 C14          3.9490     0.5340    -0.0790 cf         1 7DS      -0.278200
     24 O16          2.3440    -0.3350     1.4450 o          1 7DS      -0.566100
     25 N17          1.7140     1.4040     0.1240 ns         1 7DS      -0.523900
     26 C25         -6.3450    -0.0290    -0.1110 ca         1 7DS      -0.166000
     27 C26         -5.0020     0.3940    -0.1920 ca         1 7DS       0.015000
     28 N27         -0.3930    -0.2510    -1.0020 na         1 7DS      -0.293500
     29 C28         -1.5740    -0.8540    -1.3870 cc         1 7DS      -0.218000
     30 C29         -2.5660    -0.1570    -0.7380 cd         1 7DS       0.293500
     31 N30         -2.0030     0.8010     0.0770 nd         1 7DS      -0.636000
     32 N31         -4.6870     1.7330     0.1520 ns         1 7DS      -0.160000
     33 C32         -1.2460     3.3930     1.5430 c2         1 7DS      -0.198200
     34 C35         -4.8220     4.0230     1.0500 c3         1 7DS      -0.153400
     35 C36         -5.1570     2.5290     1.1810 c          1 7DS       0.609100
     36 N37         -8.1140    -1.6460    -0.4340 ns         1 7DS      -0.138000
     37 C38         -8.8180    -2.7880    -0.7670 c          1 7DS       0.645100
     38 O39        -10.1360    -2.6050    -0.4480 os         1 7DS      -0.459100
     39 O40         -8.3580    -3.8080    -1.2650 o          1 7DS      -0.523000
     40 C41        -11.0510    -3.6850    -0.7160 c3         1 7DS       0.171900
     41 O42         -5.8230     2.0970     2.1170 o          1 7DS      -0.580100
     42 H47          4.8180    -1.0440     1.0100 ha         1 7DS       0.216000
     43 H50          0.3400     1.1830     1.6830 h1         1 7DS       0.105700
     44 H51          0.8590     3.5910     1.2320 hc         1 7DS       0.047200
     45 H52         -0.0560     3.4950    -0.2620 hc         1 7DS       0.047200
     46 H53         -3.7000    -2.4620    -1.5700 ha         1 7DS       0.122000
     47 H54         -6.0240    -3.1580    -1.4420 ha         1 7DS       0.150000
     48 H63         -3.5610     3.9550     2.8270 hc         1 7DS       0.058700
     49 H64         -3.5950     5.5130     2.0190 hc         1 7DS       0.058700
     50 H61         -2.2400     4.5350     0.0740 ha         1 7DS       0.157000
     51 H43          9.6030    -1.2670     0.2800 ha         1 7DS       0.137000
     52 H44          9.9070    -0.4040    -2.0280 ha         1 7DS       0.143000
     53 H45          5.7210     0.5500    -2.2520 ha         1 7DS       0.137000
     54 H46          7.9240    -3.4180     1.3850 h5         1 7DS       0.078100
     55 H48          4.0840     1.3010    -0.8390 ha         1 7DS       0.177000
     56 H49          2.0320     2.0410    -0.5970 hn         1 7DS       0.314500
     57 H55         -7.1000     0.6520     0.2740 ha         1 7DS       0.123000
     58 H56          0.5450    -0.5060    -1.2850 hn         1 7DS       0.349000
     59 H57         -1.6180    -1.6970    -2.0650 h4         1 7DS       0.159000
     60 H58         -4.0460     2.1900    -0.4830 hn         1 7DS       0.153000
     61 H59         -1.2710     2.9700     2.5500 ha         1 7DS       0.188000
     62 H66         -5.6670     4.5990     1.4450 hc         1 7DS       0.057200
     63 H65         -4.6570     4.2760    -0.0040 hc         1 7DS       0.057200
     64 H67         -8.6900    -0.9190    -0.0310 hn         1 7DS       0.168000
     65 H68        -10.7660    -4.5880    -0.1590 h1         1 7DS       0.049700
     66 H69        -12.0690    -3.4070    -0.4150 h1         1 7DS       0.049700
     67 H70        -11.0680    -3.9280    -1.7870 h1         1 7DS       0.049700
     68 Cl1          8.0470     0.7410    -3.9070 cl         1 7DS      -0.178000
@<TRIPOS>BOND
     1     1    16 1   
     2     1    23 2   
     3     1    42 1   
     4     2     4 1   
     5     2     5 1   
     6     2    25 1   
     7     2    43 1   
     8     3    23 1   
     9     3    24 2   
    10     3    25 1   
    11     4    28 1   
    12     4    31 2   
    13     5    33 1   
    14     5    44 1   
    15     5    45 1   
    16     6     7 ar  
    17     6    27 ar  
    18     6    30 1   
    19     7     8 ar  
    20     7    46 1   
    21     8     9 ar  
    22     8    47 1   
    23     9    26 ar  
    24     9    36 1   
    25    10    11 1   
    26    10    34 1   
    27    10    48 1   
    28    10    49 1   
    29    11    33 2   
    30    11    50 1   
    31    12    13 ar  
    32    12    17 ar  
    33    12    51 1   
    34    13    14 ar  
    35    13    52 1   
    36    14    15 ar  
    37    14    68 1   
    38    15    16 ar  
    39    15    53 1   
    40    16    17 ar  
    41    17    18 1   
    42    18    19 1   
    43    18    22 1   
    44    19    20 2   
    45    19    54 1   
    46    20    21 1   
    47    21    22 2   
    48    23    55 1   
    49    25    56 1   
    50    26    27 ar  
    51    26    57 1   
    52    27    32 1   
    53    28    29 1   
    54    28    58 1   
    55    29    30 2   
    56    29    59 1   
    57    30    31 1   
    58    32    35 1   
    59    32    60 1   
    60    33    61 1   
    61    34    35 1   
    62    34    62 1   
    63    34    63 1   
    64    35    41 2   
    65    36    37 1   
    66    36    64 1   
    67    37    38 1   
    68    37    39 2   
    69    38    40 1   
    70    40    65 1   
    71    40    66 1   
    72    40    67 1   
@<TRIPOS>SUBSTRUCTURE
     1 7DS         1 TEMP              0 ****  ****    0 ROOT
