@<TRIPOS>MOLECULE
7DS
   68    72     1     0     0
SMALL
abcg2


@<TRIPOS>ATOM
      1 C13          4.5320    -0.4030     0.1950 ce         1 7DS      -0.086200
      2 C18          0.3510     2.0200     0.9220 c3         1 7DS       0.093400
      3 C15          2.3710     0.6660     0.6260 c          1 7DS       0.594300
      4 C19         -0.6040     1.2570     0.0580 cc         1 7DS       0.391800
      5 C20          0.0300     3.5240     0.9160 c3         1 7DS      -0.050200
      6 C21         -3.6860    -0.3450    -0.5960 ca         1 7DS      -0.149500
      7 C22         -3.8880    -1.7170    -0.6870 ca         1 7DS      -0.056000
      8 C23         -5.1400    -2.2950    -0.5410 ca         1 7DS      -0.146000
      9 C24         -6.2450    -1.4800    -0.2980 ca         1 7DS       0.010000
     10 C34         -3.6500     4.7790     1.2520 c3         1 7DS      -0.031200
     11 C33         -2.2850     4.4410     0.7450 c2         1 7DS      -0.218200
     12 C2           8.1120    -1.5080    -0.2550 ca         1 7DS      -0.096000
     13 C3           8.5310    -0.6960    -1.2930 ca         1 7DS      -0.086000
     14 C4           7.6390     0.2280    -1.8160 ca         1 7DS       0.126000
     15 C5           6.3480     0.3400    -1.3330 ca         1 7DS      -0.090000
     16 C6           5.9090    -0.4810    -0.2940 ca         1 7DS      -0.028800
     17 C7           6.8190    -1.4010     0.2310 ca         1 7DS       0.011800
     18 N8           6.4340    -2.2460     1.2990 na         1 7DS      -0.003500
     19 C9           6.4630    -3.5800     1.3820 cc         1 7DS       0.393400
     20 N10          6.0570    -3.9200     2.5740 nd         1 7DS      -0.375000
     21 N11          5.7850    -2.7770     3.2100 nd         1 7DS      -0.033000
     22 N12          6.0080    -1.7700     2.4680 nc         1 7DS      -0.187800
     23 C14          3.7740     0.6930     0.1450 cf         1 7DS      -0.278200
     24 O16          1.8440    -0.3310     1.0980 o          1 7DS      -0.566100
     25 N17          1.7200     1.8370     0.4930 ns         1 7DS      -0.523900
     26 C25         -6.0630    -0.0980    -0.2330 ca         1 7DS      -0.166000
     27 C26         -4.8060     0.4630    -0.3840 ca         1 7DS       0.015000
     28 N27         -0.4060     1.0260    -1.2560 na         1 7DS      -0.293500
     29 C28         -1.5080     0.3770    -1.7350 cc         1 7DS      -0.218000
     30 C29         -2.3450     0.2500    -0.6630 cd         1 7DS       0.293500
     31 N30         -1.7630     0.8020     0.4490 nd         1 7DS      -0.636000
     32 N31         -4.6690     1.8660    -0.3940 ns         1 7DS      -0.160000
     33 C32         -1.3370     3.8220     1.4390 c2         1 7DS      -0.198200
     34 C35         -4.7620     4.1510     0.4040 c3         1 7DS      -0.153400
     35 C36         -4.9320     2.6700     0.6620 c          1 7DS       0.609100
     36 N37         -7.5480    -1.9420    -0.1200 ns         1 7DS      -0.138000
     37 C38         -8.0220    -3.2060    -0.2720 c          1 7DS       0.645100
     38 O39         -9.3330    -3.2190    -0.0390 os         1 7DS      -0.459100
     39 O40         -7.3730    -4.1830    -0.5700 o          1 7DS      -0.523000
     40 C41        -10.0000    -4.4710    -0.1700 c3         1 7DS       0.171900
     41 O42         -5.3120     2.2430     1.7400 o          1 7DS      -0.580100
     42 H47          4.1000    -1.3050     0.6140 ha         1 7DS       0.216000
     43 H50          0.2320     1.6460     1.9430 h1         1 7DS       0.105700
     44 H51          0.7780     4.0210     1.5430 hc         1 7DS       0.047200
     45 H52          0.1450     3.9150    -0.0990 hc         1 7DS       0.047200
     46 H53         -3.0340    -2.3630    -0.8510 ha         1 7DS       0.122000
     47 H54         -5.2370    -3.3660    -0.6070 ha         1 7DS       0.150000
     48 H63         -3.7620     4.4800     2.2970 hc         1 7DS       0.058700
     49 H64         -3.7860     5.8640     1.2210 hc         1 7DS       0.058700
     50 H61         -2.0730     4.7420    -0.2800 ha         1 7DS       0.157000
     51 H43          8.8000    -2.2190     0.1840 ha         1 7DS       0.137000
     52 H44          9.5370    -0.7790    -1.6770 ha         1 7DS       0.143000
     53 H45          5.6660     1.0440    -1.7880 ha         1 7DS       0.137000
     54 H46          6.7630    -4.2350     0.5800 h5         1 7DS       0.078100
     55 H48          4.1630     1.6320    -0.2340 ha         1 7DS       0.177000
     56 H49          2.2090     2.6340     0.1170 hn         1 7DS       0.314500
     57 H55         -6.9200     0.5510    -0.0960 ha         1 7DS       0.123000
     58 H56          0.4100     1.2760    -1.7940 hn         1 7DS       0.349000
     59 H57         -1.6000     0.0740    -2.7650 h4         1 7DS       0.159000
     60 H58         -4.1900     2.2700    -1.1850 hn         1 7DS       0.153000
     61 H59         -1.5420     3.5100     2.4600 ha         1 7DS       0.188000
     62 H66         -5.7140     4.6230     0.6570 hc         1 7DS       0.057200
     63 H65         -4.5810     4.3560    -0.6530 hc         1 7DS       0.057200
     64 H67         -8.2340    -1.2370     0.1090 hn         1 7DS       0.168000
     65 H68         -9.6000    -5.2150     0.5190 h1         1 7DS       0.049700
     66 H69        -11.0400    -4.2790     0.0760 h1         1 7DS       0.049700
     67 H70         -9.9370    -4.8540    -1.1880 h1         1 7DS       0.049700
     68 CL1          8.1440     1.2540    -3.1100 cl         1 7DS      -0.178000
@<TRIPOS>BOND
     1     1    16 1   
     2     1    23 2   
     3     1    42 1   
     4     2     4 1   
     5     2     5 1   
     6     2    25 1   
     7     2    43 1   
     8     3    23 1   
     9     3    24 2   
    10     3    25 1   
    11     4    28 1   
    12     4    31 2   
    13     5    33 1   
    14     5    44 1   
    15     5    45 1   
    16     6     7 ar  
    17     6    27 ar  
    18     6    30 1   
    19     7     8 ar  
    20     7    46 1   
    21     8     9 ar  
    22     8    47 1   
    23     9    26 ar  
    24     9    36 1   
    25    10    11 1   
    26    10    34 1   
    27    10    48 1   
    28    10    49 1   
    29    11    33 2   
    30    11    50 1   
    31    12    13 ar  
    32    12    17 ar  
    33    12    51 1   
    34    13    14 ar  
    35    13    52 1   
    36    14    15 ar  
    37    14    68 1   
    38    15    16 ar  
    39    15    53 1   
    40    16    17 ar  
    41    17    18 1   
    42    18    19 1   
    43    18    22 1   
    44    19    20 2   
    45    19    54 1   
    46    20    21 1   
    47    21    22 2   
    48    23    55 1   
    49    25    56 1   
    50    26    27 ar  
    51    26    57 1   
    52    27    32 1   
    53    28    29 1   
    54    28    58 1   
    55    29    30 2   
    56    29    59 1   
    57    30    31 1   
    58    32    35 1   
    59    32    60 1   
    60    33    61 1   
    61    34    35 1   
    62    34    62 1   
    63    34    63 1   
    64    35    41 2   
    65    36    37 1   
    66    36    64 1   
    67    37    38 1   
    68    37    39 2   
    69    38    40 1   
    70    40    65 1   
    71    40    66 1   
    72    40    67 1   
@<TRIPOS>SUBSTRUCTURE
     1 7DS         1 TEMP              0 ****  ****    0 ROOT
