@<TRIPOS>MOLECULE
7DV
   17    17     1     0     0
SMALL
bcc


@<TRIPOS>ATOM
      1 O9           2.9520    -0.1920     0.1250 oh         1 7DV      -0.497100
      2 C4           1.6130     0.0120     0.0650 ca         1 7DV       0.105100
      3 C5           1.1500     1.3190    -0.0010 ca         1 7DV      -0.126000
      4 C6          -0.2150     1.5640    -0.0620 ca         1 7DV      -0.182000
      5 C3           0.6940    -1.0340     0.0680 ca         1 7DV      -0.188000
      6 C2          -0.6760    -0.8030     0.0070 ca         1 7DV      -0.063300
      7 C1          -1.1280     0.5170    -0.0590 ca         1 7DV       0.099100
      8 O1          -2.4680     0.7170    -0.1170 oh         1 7DV      -0.497100
      9 C7          -1.6520    -1.9430     0.0110 c3         1 7DV      -0.036800
     10 H1           3.1400    -1.1350     0.1760 ho         1 7DV       0.423000
     11 H2           1.8490     2.1460    -0.0040 ha         1 7DV       0.147000
     12 H3          -0.5660     2.5900    -0.1140 ha         1 7DV       0.132000
     13 H4           1.0480    -2.0590     0.1210 ha         1 7DV       0.131000
     14 H5          -2.6600     1.6590    -0.1680 ho         1 7DV       0.421000
     15 H6          -2.3280    -1.8900     0.8660 hc         1 7DV       0.044700
     16 H7          -2.2730    -1.9440    -0.8870 hc         1 7DV       0.044700
     17 H8          -1.1340    -2.8990     0.0560 hc         1 7DV       0.044700
@<TRIPOS>BOND
     1     1     2 1   
     2     1    10 1   
     3     2     3 ar  
     4     2     5 ar  
     5     3     4 ar  
     6     3    11 1   
     7     4     7 ar  
     8     4    12 1   
     9     5     6 ar  
    10     5    13 1   
    11     6     7 ar  
    12     6     9 1   
    13     7     8 1   
    14     8    14 1   
    15     9    15 1   
    16     9    16 1   
    17     9    17 1   
@<TRIPOS>SUBSTRUCTURE
     1 7DV         1 TEMP              0 ****  ****    0 ROOT
