@<TRIPOS>MOLECULE
7DV
   17    17     1     0     0
SMALL
No Charge or Current Charge


@<TRIPOS>ATOM
      1 O9           2.9590    -0.2090     0.1270 oh         1 7DV      -0.536100
      2 C4           1.6180     0.0250     0.0660 ca         1 7DV       0.105100
      3 C5           1.1440     1.3440    -0.0010 ca         1 7DV      -0.108000
      4 C6          -0.2390     1.5930    -0.0650 ca         1 7DV      -0.164000
      5 C3           0.7130    -1.0500     0.0700 ca         1 7DV      -0.170000
      6 C2          -0.6760    -0.8110     0.0070 ca         1 7DV      -0.063300
      7 C1          -1.1480     0.5210    -0.0610 ca         1 7DV       0.099100
      8 O1          -2.4880     0.7810    -0.1230 oh         1 7DV      -0.536100
      9 C7          -1.6480    -1.9870     0.0130 c3         1 7DV      -0.036800
     10 H1           3.1060    -1.1790     0.1690 ho         1 7DV       0.462000
     11 H2           1.8470     2.1730    -0.0040 ha         1 7DV       0.129000
     12 H3          -0.5950     2.6190    -0.1160 ha         1 7DV       0.114000
     13 H4           1.0830    -2.0710     0.1230 ha         1 7DV       0.113000
     14 H5          -2.6170     1.7530    -0.1630 ho         1 7DV       0.460000
     15 H6          -2.3280    -1.9310     0.8710 hc         1 7DV       0.044700
     16 H7          -2.2580    -1.9960    -0.8980 hc         1 7DV       0.044700
     17 H8          -1.1260    -2.9490     0.0690 hc         1 7DV       0.044700
@<TRIPOS>BOND
     1     1     2 1   
     2     1    10 1   
     3     2     3 ar  
     4     2     5 ar  
     5     3     4 ar  
     6     3    11 1   
     7     4     7 ar  
     8     4    12 1   
     9     5     6 ar  
    10     5    13 1   
    11     6     7 ar  
    12     6     9 1   
    13     7     8 1   
    14     8    14 1   
    15     9    15 1   
    16     9    16 1   
    17     9    17 1   
@<TRIPOS>SUBSTRUCTURE
     1 7DV         1 TEMP              0 ****  ****    0 ROOT
