@<TRIPOS>MOLECULE
7DW
  124   125     1     0     0
SMALL
No Charge or Current Charge


@<TRIPOS>ATOM
      1 C18        -18.6760    -8.0580    -1.2470 c3         1 7DW      -0.088100
      2 C17        -17.8760    -6.7850    -1.5850 c3         1 7DW      -0.074400
      3 C16        -16.4820    -6.7520    -0.9220 c3         1 7DW      -0.075400
      4 C15        -15.6800    -5.4760    -1.2630 c3         1 7DW      -0.074400
      5 C14        -14.2830    -5.4470    -0.6070 c3         1 7DW      -0.074400
      6 C13        -13.4860    -4.1660    -0.9390 c3         1 7DW      -0.074400
      7 C12        -12.0870    -4.1390    -0.2840 c3         1 7DW      -0.074400
      8 C11        -11.3010    -2.8470    -0.5950 c3         1 7DW      -0.074400
      9 C10         -9.9050    -2.8150     0.0660 c3         1 7DW      -0.074400
     10 C9          -9.1300    -1.5120    -0.2280 c3         1 7DW      -0.074400
     11 C8          -7.7400    -1.4700     0.4440 c3         1 7DW      -0.074400
     12 C7          -6.9750    -0.1580     0.1600 c3         1 7DW      -0.076400
     13 C6          -5.5920    -0.1000     0.8460 c3         1 7DW      -0.071400
     14 C5          -4.8420     1.2280     0.5710 c3         1 7DW      -0.107400
     15 C4          -3.4950     1.3820     1.3340 c3         1 7DW       0.136300
     16 O4          -2.6260     0.3180     0.9090 oh         1 7DW      -0.639000
     17 C3          -2.8010     2.7790     1.1100 c3         1 7DW       0.127300
     18 O3          -3.7450     3.8460     1.3510 oh         1 7DW      -0.642000
     19 C2          -1.5270     3.0480     1.9870 c3         1 7DW       0.087700
     20 C1          -0.8040     4.3640     1.5730 c3         1 7DW       0.145600
     21 O1A         -0.1430     4.1470     0.3080 os         1 7DW      -0.478000
     22 C1A          0.5840     5.2620    -0.2470 c6         1 7DW       0.359300
     23 O6A          1.6400     5.6740     0.6510 os         1 7DW      -0.452000
     24 C5A          2.6650     4.6700     0.8830 c6         1 7DW       0.173300
     25 C6A          3.6700     5.2080     1.9570 c3         1 7DW       0.170600
     26 O5A          3.0420     5.5730     3.2040 oh         1 7DW      -0.716000
     27 C4A          3.3780     4.2750    -0.4530 c6         1 7DW       0.147300
     28 O4A          4.1300     5.3620    -1.0310 oh         1 7DW      -0.714000
     29 C3A          2.3010     3.8060    -1.4760 c6         1 7DW       0.141300
     30 O3A          2.9100     3.5300    -2.7530 oh         1 7DW      -0.674000
     31 C2A          1.1710     4.8710    -1.6450 c6         1 7DW       0.116300
     32 O2A          0.1470     4.3590    -2.5330 oh         1 7DW      -0.711000
     33 N2          -0.5880     1.9140     1.9940 ns         1 7DW      -0.498900
     34 CAA          0.4780     1.7640     2.8470 c          1 7DW       0.612100
     35 OAA          0.6930     2.5360     3.7700 o          1 7DW      -0.604100
     36 CAB          1.3580     0.5410     2.5730 c3         1 7DW      -0.153400
     37 CAC          2.6780     0.9550     1.8800 c3         1 7DW      -0.072400
     38 CAD          3.6440    -0.2250     1.6470 c3         1 7DW      -0.074400
     39 CAE          4.9600     0.2060     0.9640 c3         1 7DW      -0.074400
     40 CAF          5.9510    -0.9640     0.7780 c3         1 7DW      -0.074400
     41 CAG          7.2800    -0.5330     0.1210 c3         1 7DW      -0.075400
     42 CAH          8.2910    -1.6930    -0.0060 c3         1 7DW      -0.073400
     43 CAI          9.6330    -1.2610    -0.6360 c3         1 7DW      -0.076400
     44 CAJ         10.6600    -2.4130    -0.7130 c3         1 7DW      -0.073400
     45 CAK         12.0100    -1.9830    -1.3240 c3         1 7DW      -0.029100
     46 CBC         13.0150    -3.1270    -1.3520 ca         1 7DW      -0.092300
     47 CBB         13.8790    -3.3370    -0.2590 ca         1 7DW      -0.082500
     48 CBA         14.8040    -4.3970    -0.2820 ca         1 7DW      -0.150000
     49 CBF         14.8650    -5.2470    -1.3960 ca         1 7DW       0.167000
     50 F1          15.7520    -6.2650    -1.4170 f          1 7DW      -0.181000
     51 CBE         14.0060    -5.0460    -2.4880 ca         1 7DW      -0.150000
     52 CBD         13.0810    -3.9870    -2.4660 ca         1 7DW      -0.082500
     53 H1         -19.6540    -8.0380    -1.7420 hc         1 7DW       0.031367
     54 H2         -18.1400    -8.9540    -1.5840 hc         1 7DW       0.031367
     55 H3         -18.8400    -8.1380    -0.1660 hc         1 7DW       0.031367
     56 H4         -17.7620    -6.7150    -2.6740 hc         1 7DW       0.036700
     57 H5         -18.4520    -5.9070    -1.2660 hc         1 7DW       0.036700
     58 H6         -16.5990    -6.8220     0.1670 hc         1 7DW       0.036700
     59 H7         -15.9100    -7.6320    -1.2400 hc         1 7DW       0.036700
     60 H8         -15.5680    -5.4010    -2.3520 hc         1 7DW       0.036700
     61 H9         -16.2490    -4.5960    -0.9380 hc         1 7DW       0.036700
     62 H10        -14.3940    -5.5290     0.4820 hc         1 7DW       0.037200
     63 H11        -13.7110    -6.3230    -0.9370 hc         1 7DW       0.037200
     64 H12        -13.3760    -4.0810    -2.0270 hc         1 7DW       0.036700
     65 H13        -14.0570    -3.2910    -0.6050 hc         1 7DW       0.036700
     66 H14        -12.1960    -4.2400     0.8030 hc         1 7DW       0.037200
     67 H15        -11.5100    -5.0050    -0.6310 hc         1 7DW       0.037200
     68 H16        -11.1880    -2.7450    -1.6820 hc         1 7DW       0.036700
     69 H17        -11.8810    -1.9810    -0.2520 hc         1 7DW       0.036700
     70 H18        -10.0180    -2.9290     1.1510 hc         1 7DW       0.037700
     71 H19         -9.3190    -3.6720    -0.2880 hc         1 7DW       0.037700
     72 H20         -9.0100    -1.4010    -1.3130 hc         1 7DW       0.036700
     73 H21         -9.7220    -0.6560     0.1180 hc         1 7DW       0.036700
     74 H22         -7.8610    -1.5890     1.5280 hc         1 7DW       0.038200
     75 H23         -7.1420    -2.3200     0.0920 hc         1 7DW       0.038200
     76 H24         -6.8450    -0.0440    -0.9230 hc         1 7DW       0.036200
     77 H25         -7.5810     0.6900     0.5010 hc         1 7DW       0.036200
     78 H26         -5.7240    -0.2230     1.9280 hc         1 7DW       0.044200
     79 H27         -4.9910    -0.9480     0.4950 hc         1 7DW       0.044200
     80 H28         -4.6610     1.3260    -0.5060 hc         1 7DW       0.048700
     81 H29         -5.5120     2.0500     0.8500 hc         1 7DW       0.048700
     82 H30         -3.7010     1.2820     2.4090 h1         1 7DW       0.069700
     83 H31         -3.1090    -0.5240     1.0550 ho         1 7DW       0.435000
     84 H32         -2.4850     2.8090     0.0580 h1         1 7DW       0.080700
     85 H33         -4.1540     3.6940     2.2300 ho         1 7DW       0.438000
     86 H34         -1.8700     3.1800     3.0220 h1         1 7DW       0.091700
     87 H35         -1.5250     5.1880     1.5030 h1         1 7DW       0.050200
     88 H36         -0.0730     4.6310     2.3470 h1         1 7DW       0.050200
     89 H37         -0.1120     6.1040    -0.3860 h2         1 7DW       0.070700
     90 H38          2.1870     3.7760     1.3060 h1         1 7DW       0.053700
     91 H39          4.4250     4.4300     2.1320 h1         1 7DW       0.037700
     92 H40          4.1930     6.0780     1.5360 h1         1 7DW       0.037700
     93 H41          3.7400     5.9740     3.7720 ho         1 7DW       0.505000
     94 H42          4.0490     3.4280    -0.2470 h1         1 7DW       0.048700
     95 H43          4.2210     5.1120    -1.9830 ho         1 7DW       0.522000
     96 H44          1.8440     2.8860    -1.0790 h1         1 7DW       0.060700
     97 H45          2.1590     3.4890    -3.3910 ho         1 7DW       0.470000
     98 H46          1.6140     5.7800    -2.0800 h1         1 7DW       0.064700
     99 H47         -0.4830     3.8620    -1.9560 ho         1 7DW       0.513000
    100 H48         -0.7410     1.1780     1.3120 hn         1 7DW       0.311500
    101 H49          1.6000     0.0590     3.5280 hc         1 7DW       0.052700
    102 H50          0.8320    -0.1640     1.9180 hc         1 7DW       0.052700
    103 H51          2.4440     1.4220     0.9160 hc         1 7DW       0.058700
    104 H52          3.1830     1.7140     2.4920 hc         1 7DW       0.058700
    105 H53          3.8750    -0.6960     2.6110 hc         1 7DW       0.035200
    106 H54          3.1470    -0.9840     1.0290 hc         1 7DW       0.035200
    107 H55          4.7330     0.6470    -0.0150 hc         1 7DW       0.038700
    108 H56          5.4390     0.9880     1.5660 hc         1 7DW       0.038700
    109 H57          6.1640    -1.4110     1.7570 hc         1 7DW       0.037200
    110 H58          5.4810    -1.7430     0.1650 hc         1 7DW       0.037200
    111 H59          7.0750    -0.1200    -0.8750 hc         1 7DW       0.037700
    112 H60          7.7310     0.2720     0.7150 hc         1 7DW       0.037700
    113 H61          8.4810    -2.1130     0.9900 hc         1 7DW       0.038200
    114 H62          7.8490    -2.4940    -0.6120 hc         1 7DW       0.038200
    115 H63          9.4500    -0.8700    -1.6440 hc         1 7DW       0.037700
    116 H64         10.0590    -0.4400    -0.0460 hc         1 7DW       0.037700
    117 H65         10.8340    -2.8080     0.2950 hc         1 7DW       0.042700
    118 H66         10.2400    -3.2330    -1.3100 hc         1 7DW       0.042700
    119 H67         11.8420    -1.6030    -2.3400 hc         1 7DW       0.047200
    120 H68         12.4150    -1.1420    -0.7480 hc         1 7DW       0.047200
    121 H69         13.8330    -2.6820     0.6090 ha         1 7DW       0.115500
    122 H70         15.4710    -4.5600     0.5610 ha         1 7DW       0.131000
    123 H71         14.0580    -5.7110    -3.3460 ha         1 7DW       0.131000
    124 H72         12.4150    -3.8370    -3.3120 ha         1 7DW       0.115500
@<TRIPOS>BOND
     1     1     2 1   
     2     1    53 1   
     3     1    54 1   
     4     1    55 1   
     5     2     3 1   
     6     2    56 1   
     7     2    57 1   
     8     3     4 1   
     9     3    58 1   
    10     3    59 1   
    11     4     5 1   
    12     4    60 1   
    13     4    61 1   
    14     5     6 1   
    15     5    62 1   
    16     5    63 1   
    17     6     7 1   
    18     6    64 1   
    19     6    65 1   
    20     7     8 1   
    21     7    66 1   
    22     7    67 1   
    23     8     9 1   
    24     8    68 1   
    25     8    69 1   
    26     9    10 1   
    27     9    70 1   
    28     9    71 1   
    29    10    11 1   
    30    10    72 1   
    31    10    73 1   
    32    11    12 1   
    33    11    74 1   
    34    11    75 1   
    35    12    13 1   
    36    12    76 1   
    37    12    77 1   
    38    13    14 1   
    39    13    78 1   
    40    13    79 1   
    41    14    15 1   
    42    14    80 1   
    43    14    81 1   
    44    15    16 1   
    45    15    17 1   
    46    15    82 1   
    47    16    83 1   
    48    17    18 1   
    49    17    19 1   
    50    17    84 1   
    51    18    85 1   
    52    19    20 1   
    53    19    33 1   
    54    19    86 1   
    55    20    21 1   
    56    20    87 1   
    57    20    88 1   
    58    21    22 1   
    59    22    23 1   
    60    22    31 1   
    61    22    89 1   
    62    23    24 1   
    63    24    25 1   
    64    24    27 1   
    65    24    90 1   
    66    25    26 1   
    67    25    91 1   
    68    25    92 1   
    69    26    93 1   
    70    27    28 1   
    71    27    29 1   
    72    27    94 1   
    73    28    95 1   
    74    29    30 1   
    75    29    31 1   
    76    29    96 1   
    77    30    97 1   
    78    31    32 1   
    79    31    98 1   
    80    32    99 1   
    81    33    34 1   
    82    33   100 1   
    83    34    35 2   
    84    34    36 1   
    85    36    37 1   
    86    36   101 1   
    87    36   102 1   
    88    37    38 1   
    89    37   103 1   
    90    37   104 1   
    91    38    39 1   
    92    38   105 1   
    93    38   106 1   
    94    39    40 1   
    95    39   107 1   
    96    39   108 1   
    97    40    41 1   
    98    40   109 1   
    99    40   110 1   
   100    41    42 1   
   101    41   111 1   
   102    41   112 1   
   103    42    43 1   
   104    42   113 1   
   105    42   114 1   
   106    43    44 1   
   107    43   115 1   
   108    43   116 1   
   109    44    45 1   
   110    44   117 1   
   111    44   118 1   
   112    45    46 1   
   113    45   119 1   
   114    45   120 1   
   115    46    47 ar  
   116    46    52 ar  
   117    47    48 ar  
   118    47   121 1   
   119    48    49 ar  
   120    48   122 1   
   121    49    50 1   
   122    49    51 ar  
   123    51    52 ar  
   124    51   123 1   
   125    52   124 1   
@<TRIPOS>SUBSTRUCTURE
     1 7DW         1 TEMP              0 ****  ****    0 ROOT
