@<TRIPOS>MOLECULE
7DW
  124   125     1     0     0
SMALL
bcc


@<TRIPOS>ATOM
      1 C18        -18.6090    -7.9050    -0.1990 c3         1 7DW      -0.088100
      2 C17        -17.8830    -6.6020    -0.5020 c3         1 7DW      -0.074400
      3 C16        -16.3920    -6.6680    -0.1940 c3         1 7DW      -0.075400
      4 C15        -15.6560    -5.3670    -0.4890 c3         1 7DW      -0.074400
      5 C14        -14.1670    -5.4320    -0.1760 c3         1 7DW      -0.074400
      6 C13        -13.4340    -4.1290    -0.4650 c3         1 7DW      -0.074400
      7 C12        -11.9470    -4.1860    -0.1390 c3         1 7DW      -0.074400
      8 C11        -11.2170    -2.8790    -0.4190 c3         1 7DW      -0.074400
      9 C10         -9.7370    -2.9250    -0.0640 c3         1 7DW      -0.074400
     10 C9          -9.0120    -1.6110    -0.3290 c3         1 7DW      -0.074400
     11 C8          -7.5470    -1.6360     0.0860 c3         1 7DW      -0.074400
     12 C7          -6.8300    -0.3130    -0.1550 c3         1 7DW      -0.076400
     13 C6          -5.4030    -0.2960     0.3790 c3         1 7DW      -0.071400
     14 C5          -4.7100     1.0420     0.1510 c3         1 7DW      -0.107400
     15 C4          -3.3810     1.1650     0.8920 c3         1 7DW       0.113100
     16 O4          -2.5000     0.1180     0.5550 oh         1 7DW      -0.576800
     17 C3          -2.7460     2.5590     0.7040 c3         1 7DW       0.104100
     18 O3          -3.6530     3.5550     1.1160 oh         1 7DW      -0.579800
     19 C2          -1.3990     2.7080     1.4440 c3         1 7DW       0.087700
     20 C1          -0.9610     4.1570     1.6080 c3         1 7DW       0.122400
     21 O1A         -0.7780     4.7000     0.3170 os         1 7DW      -0.431600
     22 C1A         -0.0950     5.9070     0.2700 c6         1 7DW       0.312900
     23 O6A          1.2470     5.7860     0.6540 os         1 7DW      -0.405600
     24 C5A          2.0310     4.9330    -0.1650 c6         1 7DW       0.150100
     25 C6A          3.4220     4.8640     0.4280 c3         1 7DW       0.147400
     26 O5A          3.3460     4.2110     1.6740 oh         1 7DW      -0.593800
     27 C4A          2.0400     5.4040    -1.6130 c6         1 7DW       0.124100
     28 O4A          2.7440     6.6200    -1.6980 oh         1 7DW      -0.591800
     29 C3A          0.6020     5.5520    -2.1040 c6         1 7DW       0.118100
     30 O3A          0.6520     6.0790    -3.4100 oh         1 7DW      -0.611800
     31 C2A         -0.1830     6.4520    -1.1590 c6         1 7DW       0.093100
     32 O2A         -1.5040     6.5270    -1.6300 oh         1 7DW      -0.588800
     33 N2          -0.3480     1.9850     0.7640 ns         1 7DW      -0.565900
     34 CAA          0.4650     1.0930     1.3500 c          1 7DW       0.679100
     35 OAA          0.3710     0.7760     2.5290 o          1 7DW      -0.604100
     36 CAB          1.5240     0.4940     0.4500 c3         1 7DW      -0.153400
     37 CAC          2.8940     0.4700     1.1190 c3         1 7DW      -0.072400
     38 CAD          3.9530    -0.2190     0.2700 c3         1 7DW      -0.074400
     39 CAE          5.2960    -0.3130     0.9820 c3         1 7DW      -0.074400
     40 CAF          6.3620    -1.0560     0.1880 c3         1 7DW      -0.074400
     41 CAG          7.6730    -1.2020     0.9510 c3         1 7DW      -0.075400
     42 CAH          8.7440    -1.9700     0.1880 c3         1 7DW      -0.073400
     43 CAI         10.0320    -2.1370     0.9830 c3         1 7DW      -0.076400
     44 CAJ         11.1130    -2.9020     0.2310 c3         1 7DW      -0.073400
     45 CAK         12.3950    -3.0590     1.0500 c3         1 7DW      -0.029100
     46 CBC         13.4740    -3.7880     0.2990 ca         1 7DW      -0.092300
     47 CBB         13.6860    -5.1520     0.4780 ca         1 7DW      -0.100500
     48 CBA         14.6590    -5.8360    -0.2410 ca         1 7DW      -0.168000
     49 CBF         15.4210    -5.1320    -1.1520 ca         1 7DW       0.131900
     50 F1          16.3700    -5.7810    -1.8500 f          1 7DW      -0.145900
     51 CBE         15.2420    -3.7790    -1.3640 ca         1 7DW      -0.168000
     52 CBD         14.2650    -3.1180    -0.6320 ca         1 7DW      -0.100500
     53 H1         -19.6710    -7.8380    -0.4370 hc         1 7DW       0.031367
     54 H2         -18.1920    -8.7320    -0.7770 hc         1 7DW       0.031367
     55 H3         -18.5230    -8.1680     0.8570 hc         1 7DW       0.031367
     56 H4         -18.0210    -6.3400    -1.5560 hc         1 7DW       0.036700
     57 H5         -18.3340    -5.7870     0.0730 hc         1 7DW       0.036700
     58 H6         -16.2530    -6.9330     0.8610 hc         1 7DW       0.036700
     59 H7         -15.9380    -7.4820    -0.7700 hc         1 7DW       0.036700
     60 H8         -15.7930    -5.1040    -1.5440 hc         1 7DW       0.036700
     61 H9         -16.1130    -4.5540     0.0860 hc         1 7DW       0.036700
     62 H10        -14.0310    -5.6990     0.8780 hc         1 7DW       0.037200
     63 H11        -13.7090    -6.2430    -0.7520 hc         1 7DW       0.037200
     64 H12        -13.5630    -3.8650    -1.5210 hc         1 7DW       0.036700
     65 H13        -13.8980    -3.3170     0.1060 hc         1 7DW       0.036700
     66 H14        -11.8190    -4.4540     0.9160 hc         1 7DW       0.037200
     67 H15        -11.4790    -4.9950    -0.7120 hc         1 7DW       0.037200
     68 H16        -11.3300    -2.6190    -1.4780 hc         1 7DW       0.036700
     69 H17        -11.6970    -2.0690     0.1420 hc         1 7DW       0.036700
     70 H18         -9.6290    -3.1900     0.9940 hc         1 7DW       0.037700
     71 H19         -9.2510    -3.7300    -0.6270 hc         1 7DW       0.037700
     72 H20         -9.0880    -1.3610    -1.3930 hc         1 7DW       0.036700
     73 H21         -9.5230    -0.8030     0.2070 hc         1 7DW       0.036700
     74 H22         -7.4810    -1.8910     1.1500 hc         1 7DW       0.038200
     75 H23         -7.0270    -2.4380    -0.4490 hc         1 7DW       0.038200
     76 H24         -6.8270    -0.0890    -1.2280 hc         1 7DW       0.036200
     77 H25         -7.3970     0.4950     0.3200 hc         1 7DW       0.036200
     78 H26         -5.4260    -0.5120     1.4530 hc         1 7DW       0.044200
     79 H27         -4.8300    -1.1050    -0.0810 hc         1 7DW       0.044200
     80 H28         -4.5460     1.2030    -0.9220 hc         1 7DW       0.048700
     81 H29         -5.3740     1.8450     0.4780 hc         1 7DW       0.048700
     82 H30         -3.5730     1.0380     1.9670 h1         1 7DW       0.069700
     83 H31         -2.2950     0.1800    -0.3840 ho         1 7DW       0.396000
     84 H32         -2.5820     2.7340    -0.3660 h1         1 7DW       0.080700
     85 H33         -3.9050     3.3830     2.0300 ho         1 7DW       0.399000
     86 H34         -1.5000     2.2840     2.4460 h1         1 7DW       0.091700
     87 H35         -1.6960     4.7390     2.1750 h1         1 7DW       0.050200
     88 H36         -0.0270     4.1620     2.1800 h1         1 7DW       0.050200
     89 H37         -0.5280     6.6280     0.9780 h2         1 7DW       0.070700
     90 H38          1.6260     3.9120    -0.1570 h1         1 7DW       0.053700
     91 H39          4.0610     4.3150    -0.2760 h1         1 7DW       0.037700
     92 H40          3.8400     5.8730     0.5270 h1         1 7DW       0.037700
     93 H41          4.2410     4.1100     2.0100 ho         1 7DW       0.406000
     94 H42          2.5310     4.6230    -2.2150 h1         1 7DW       0.048700
     95 H43          2.6170     6.9700    -2.5870 ho         1 7DW       0.423000
     96 H44          0.1390     4.5550    -2.1070 h1         1 7DW       0.060700
     97 H45         -0.2400     6.3280    -3.6720 ho         1 7DW       0.431000
     98 H46          0.2880     7.4430    -1.1490 h1         1 7DW       0.064700
     99 H47         -1.9290     7.3000    -1.2450 ho         1 7DW       0.414000
    100 H48         -0.1850     2.2170    -0.2030 hn         1 7DW       0.311500
    101 H49          1.2130    -0.5280     0.2100 hc         1 7DW       0.052700
    102 H50          1.5810     1.0280    -0.5020 hc         1 7DW       0.052700
    103 H51          3.2060     1.4960     1.3420 hc         1 7DW       0.058700
    104 H52          2.8130    -0.0450     2.0790 hc         1 7DW       0.058700
    105 H53          3.6090    -1.2260     0.0100 hc         1 7DW       0.035200
    106 H54          4.0760     0.3140    -0.6790 hc         1 7DW       0.035200
    107 H55          5.6560     0.6940     1.2220 hc         1 7DW       0.038700
    108 H56          5.1520    -0.8160     1.9450 hc         1 7DW       0.038700
    109 H57          5.9860    -2.0500    -0.0790 hc         1 7DW       0.037200
    110 H58          6.5450    -0.5380    -0.7600 hc         1 7DW       0.037200
    111 H59          8.0560    -0.2090     1.2120 hc         1 7DW       0.037700
    112 H60          7.4770    -1.7070     1.9040 hc         1 7DW       0.037700
    113 H61          8.3560    -2.9570    -0.0880 hc         1 7DW       0.038200
    114 H62          8.9610    -1.4570    -0.7550 hc         1 7DW       0.038200
    115 H63         10.4180    -1.1490     1.2620 hc         1 7DW       0.037700
    116 H64          9.8110    -2.6510     1.9250 hc         1 7DW       0.037700
    117 H65         10.7380    -3.8920    -0.0490 hc         1 7DW       0.042700
    118 H66         11.3430    -2.3860    -0.7060 hc         1 7DW       0.042700
    119 H67         12.7560    -2.0680     1.3410 hc         1 7DW       0.047200
    120 H68         12.1650    -3.5900     1.9780 hc         1 7DW       0.047200
    121 H69         13.0860    -5.6990     1.1970 ha         1 7DW       0.133500
    122 H70         14.8210    -6.8950    -0.0890 ha         1 7DW       0.149000
    123 H71         15.8540    -3.2480    -2.0820 ha         1 7DW       0.149000
    124 H72         14.1220    -2.0550    -0.7900 ha         1 7DW       0.133500
@<TRIPOS>BOND
     1     1     2 1   
     2     1    53 1   
     3     1    54 1   
     4     1    55 1   
     5     2     3 1   
     6     2    56 1   
     7     2    57 1   
     8     3     4 1   
     9     3    58 1   
    10     3    59 1   
    11     4     5 1   
    12     4    60 1   
    13     4    61 1   
    14     5     6 1   
    15     5    62 1   
    16     5    63 1   
    17     6     7 1   
    18     6    64 1   
    19     6    65 1   
    20     7     8 1   
    21     7    66 1   
    22     7    67 1   
    23     8     9 1   
    24     8    68 1   
    25     8    69 1   
    26     9    10 1   
    27     9    70 1   
    28     9    71 1   
    29    10    11 1   
    30    10    72 1   
    31    10    73 1   
    32    11    12 1   
    33    11    74 1   
    34    11    75 1   
    35    12    13 1   
    36    12    76 1   
    37    12    77 1   
    38    13    14 1   
    39    13    78 1   
    40    13    79 1   
    41    14    15 1   
    42    14    80 1   
    43    14    81 1   
    44    15    16 1   
    45    15    17 1   
    46    15    82 1   
    47    16    83 1   
    48    17    18 1   
    49    17    19 1   
    50    17    84 1   
    51    18    85 1   
    52    19    20 1   
    53    19    33 1   
    54    19    86 1   
    55    20    21 1   
    56    20    87 1   
    57    20    88 1   
    58    21    22 1   
    59    22    23 1   
    60    22    31 1   
    61    22    89 1   
    62    23    24 1   
    63    24    25 1   
    64    24    27 1   
    65    24    90 1   
    66    25    26 1   
    67    25    91 1   
    68    25    92 1   
    69    26    93 1   
    70    27    28 1   
    71    27    29 1   
    72    27    94 1   
    73    28    95 1   
    74    29    30 1   
    75    29    31 1   
    76    29    96 1   
    77    30    97 1   
    78    31    32 1   
    79    31    98 1   
    80    32    99 1   
    81    33    34 1   
    82    33   100 1   
    83    34    35 2   
    84    34    36 1   
    85    36    37 1   
    86    36   101 1   
    87    36   102 1   
    88    37    38 1   
    89    37   103 1   
    90    37   104 1   
    91    38    39 1   
    92    38   105 1   
    93    38   106 1   
    94    39    40 1   
    95    39   107 1   
    96    39   108 1   
    97    40    41 1   
    98    40   109 1   
    99    40   110 1   
   100    41    42 1   
   101    41   111 1   
   102    41   112 1   
   103    42    43 1   
   104    42   113 1   
   105    42   114 1   
   106    43    44 1   
   107    43   115 1   
   108    43   116 1   
   109    44    45 1   
   110    44   117 1   
   111    44   118 1   
   112    45    46 1   
   113    45   119 1   
   114    45   120 1   
   115    46    47 ar  
   116    46    52 ar  
   117    47    48 ar  
   118    47   121 1   
   119    48    49 ar  
   120    48   122 1   
   121    49    50 1   
   122    49    51 ar  
   123    51    52 ar  
   124    51   123 1   
   125    52   124 1   
@<TRIPOS>SUBSTRUCTURE
     1 7DW         1 TEMP              0 ****  ****    0 ROOT
