@<TRIPOS>MOLECULE
7DX
   61    65     1     0     0
SMALL
bcc


@<TRIPOS>ATOM
      1 C4           8.2650     0.2310    -0.6240 ca         1 7DX      -0.106000
      2 C5           7.9060    -0.4910     0.5110 ca         1 7DX      -0.108500
      3 C6           6.5050    -0.5550     0.9270 cc         1 7DX       0.412800
      4 C8           4.3740    -0.0180     0.6920 cd         1 7DX       0.513900
      5 C10          3.3830     1.4990    -0.9850 ca         1 7DX      -0.119000
      6 C13          0.8010     0.9860    -0.0250 ca         1 7DX       0.432600
      7 C15         -1.4680     1.2900    -0.0850 ca         1 7DX       0.582200
      8 C17         -3.2030    -0.1290     0.9610 c          1 7DX       0.683100
      9 C20         -7.0980    -0.3610     0.3610 c6         1 7DX      -0.038700
     10 C21         -8.0120    -0.6180    -0.8460 c6         1 7DX      -0.072900
     11 C22         -9.4960    -0.5650    -0.4800 c6         1 7DX      -0.073400
     12 C24         -8.9500    -1.2820     1.8430 c6         1 7DX      -0.073400
     13 C26         -5.2920     0.5750    -1.1410 c          1 7DX       0.925600
     14 C23         -9.8400    -1.5370     0.6350 c6         1 7DX      -0.071400
     15 C25         -7.4640    -1.3300     1.4780 c6         1 7DX      -0.072900
     16 C19         -5.5950    -0.4310    -0.0150 c3         1 7DX      -0.185700
     17 C18         -4.7040    -0.1590     1.2300 c3         1 7DX      -0.141400
     18 O29         -2.4850    -1.0530     1.2770 o          1 7DX      -0.588100
     19 N16         -2.7520     1.0130     0.3730 ns         1 7DX      -0.567400
     20 C30         -1.3700     2.2230    -1.1530 ca         1 7DX      -0.239300
     21 C31         -0.1370     2.5190    -1.6440 ca         1 7DX      -0.089000
     22 N14         -0.4390     0.7000     0.4610 nb         1 7DX      -0.703000
     23 C32          1.9200     0.3630     0.5650 ca         1 7DX      -0.149300
     24 C12          1.0050     1.8930    -1.0920 ca         1 7DX      -0.170300
     25 C11          2.3170     2.1370    -1.5490 ca         1 7DX      -0.107000
     26 C9           3.1940     0.6000     0.0920 ca         1 7DX      -0.144500
     27 N7           5.5700     0.1490     0.2310 nc         1 7DX      -0.660000
     28 S33          4.3040    -1.0480     2.0810 ss         1 7DX      -0.136300
     29 C34          5.9810    -1.3150     1.9410 cd         1 7DX      -0.226400
     30 C35          8.9070    -1.1400     1.2380 ca         1 7DX      -0.106000
     31 C1          10.2280    -1.0770     0.8310 ca         1 7DX      -0.138000
     32 C2          10.5750    -0.3620    -0.3080 ca         1 7DX      -0.129000
     33 C3           9.5880     0.2940    -1.0300 ca         1 7DX      -0.138000
     34 H1           7.5050     0.7500    -1.1930 ha         1 7DX       0.141000
     35 H3           4.3860     1.6860    -1.3470 ha         1 7DX       0.143000
     36 H4          -7.2940     0.6590     0.7210 hc         1 7DX       0.050700
     37 H5          -7.8170     0.1070    -1.6370 hc         1 7DX       0.042700
     38 H6          -7.7760    -1.6030    -1.2670 hc         1 7DX       0.042700
     39 H7          -9.7520     0.4500    -0.1590 hc         1 7DX       0.026200
     40 H8         -10.1030    -0.7710    -1.3650 hc         1 7DX       0.026200
     41 H9          -9.1820    -0.2960     2.2600 hc         1 7DX       0.026200
     42 H10         -9.1620    -2.0060     2.6350 hc         1 7DX       0.026200
     43 H11        -10.8940    -1.4490     0.9120 hc         1 7DX       0.024700
     44 H12         -9.6940    -2.5640     0.2800 hc         1 7DX       0.024700
     45 H13         -7.1990    -2.3460     1.1570 hc         1 7DX       0.042700
     46 H14         -6.8750    -1.1240     2.3760 hc         1 7DX       0.042700
     47 H15         -5.3820    -1.4470    -0.3770 hc         1 7DX       0.048700
     48 H17         -4.8760    -0.9380     1.9740 hc         1 7DX       0.052200
     49 H18         -5.0260     0.7880     1.6720 hc         1 7DX       0.052200
     50 H19         -3.4970     1.5880    -0.0310 hn         1 7DX       0.387500
     51 H20         -2.2640     2.6640    -1.5680 ha         1 7DX       0.173000
     52 H21         -0.0240     3.2260    -2.4570 ha         1 7DX       0.130000
     53 H22          1.7380    -0.3150     1.3900 ha         1 7DX       0.150000
     54 H23          2.4670     2.8300    -2.3680 ha         1 7DX       0.125000
     55 H24          6.4840    -1.9920     2.6140 h4         1 7DX       0.173000
     56 H26          8.6670    -1.6950     2.1350 ha         1 7DX       0.141000
     57 H27         10.9890    -1.5870     1.4070 ha         1 7DX       0.125500
     58 H28         11.6080    -0.3120    -0.6260 ha         1 7DX       0.124000
     59 H29          9.8480     0.8590    -1.9150 ha         1 7DX       0.125500
     60 O28         -5.1650     1.7730    -0.7780 o          1 7DX      -0.831300
     61 O27         -5.2160     0.1340    -2.2910 o          1 7DX      -0.831300
@<TRIPOS>BOND
     1     1     2 ar  
     2     1    33 ar  
     3     1    34 1   
     4     2     3 1   
     5     2    30 ar  
     6     3    27 1   
     7     3    29 2   
     8     4    26 1   
     9     4    27 2   
    10     4    28 1   
    11     5    25 ar  
    12     5    26 ar  
    13     5    35 1   
    14     6    22 ar  
    15     6    23 ar  
    16     6    24 ar  
    17     7    19 1   
    18     7    20 ar  
    19     7    22 ar  
    20     8    17 1   
    21     8    18 2   
    22     8    19 1   
    23     9    10 1   
    24     9    15 1   
    25     9    16 1   
    26     9    36 1   
    27    10    11 1   
    28    10    37 1   
    29    10    38 1   
    30    11    14 1   
    31    11    39 1   
    32    11    40 1   
    33    12    14 1   
    34    12    15 1   
    35    12    41 1   
    36    12    42 1   
    37    13    16 1   
    38    13    60 1   
    39    13    61 1   
    40    14    43 1   
    41    14    44 1   
    42    15    45 1   
    43    15    46 1   
    44    16    17 1   
    45    16    47 1   
    46    17    48 1   
    47    17    49 1   
    48    19    50 1   
    49    20    21 ar  
    50    20    51 1   
    51    21    24 ar  
    52    21    52 1   
    53    23    26 ar  
    54    23    53 1   
    55    24    25 ar  
    56    25    54 1   
    57    28    29 1   
    58    29    55 1   
    59    30    31 ar  
    60    30    56 1   
    61    31    32 ar  
    62    31    57 1   
    63    32    33 ar  
    64    32    58 1   
    65    33    59 1   
@<TRIPOS>SUBSTRUCTURE
     1 7DX         1 TEMP              0 ****  ****    0 ROOT
