@<TRIPOS>MOLECULE
7DX
   61    65     1     0     0
SMALL
No Charge or Current Charge


@<TRIPOS>ATOM
      1 C4           8.5540     0.0440    -0.5720 ca         1 7DX      -0.088000
      2 C5           8.0000    -0.5810     0.5700 ca         1 7DX      -0.108500
      3 C6           6.5380    -0.6320     0.7470 cc         1 7DX       0.347500
      4 C8           4.4300    -0.0720     0.4240 cd         1 7DX       0.513900
      5 C10          3.4810     1.7450    -1.0410 ca         1 7DX      -0.101000
      6 C13          0.8450     1.0670    -0.2770 ca         1 7DX       0.302000
      7 C15         -1.4480     1.4020    -0.4220 ca         1 7DX       0.516900
      8 C17         -3.2580    -0.2040     0.2390 c          1 7DX       0.616100
      9 C20         -7.2440    -0.4130     0.4310 c6         1 7DX      -0.038700
     10 C21         -8.3260    -0.6570    -0.6670 c6         1 7DX      -0.072900
     11 C22         -9.7640    -0.6020    -0.0940 c6         1 7DX      -0.073400
     12 C24         -8.8940    -1.3700     2.1690 c6         1 7DX      -0.073400
     13 C26         -5.6200     0.4850    -1.3800 c          1 7DX       0.715000
     14 C23         -9.9440    -1.6120     1.0620 c6         1 7DX      -0.071400
     15 C25         -7.4530    -1.4230     1.6040 c6         1 7DX      -0.072900
     16 C19         -5.7890    -0.4680    -0.1680 c3         1 7DX      -0.185700
     17 C18         -4.6580    -0.1960     0.8780 c3         1 7DX      -0.141400
     18 O29         -2.6970    -1.2460    -0.0800 o          1 7DX      -0.588100
     19 N16         -2.7030     1.0420     0.0720 ns         1 7DX      -0.333900
     20 C30         -1.2990     2.4830    -1.3020 ca         1 7DX      -0.156000
     21 C31         -0.0070     2.8510    -1.7070 ca         1 7DX      -0.071000
     22 N14         -0.4080     0.7240     0.1060 nb         1 7DX      -0.703000
     23 C32          1.9480     0.3620     0.2390 ca         1 7DX      -0.066000
     24 C12          1.0810     2.1280    -1.1880 ca         1 7DX      -0.105000
     25 C11          2.3930     2.4610    -1.5640 ca         1 7DX      -0.089000
     26 C9           3.2780     0.6830    -0.1300 ca         1 7DX      -0.144500
     27 N7           5.6850     0.2160     0.0930 nc         1 7DX      -0.660000
     28 S33          4.2300    -1.4170     1.5570 ss         1 7DX       0.008600
     29 C34          5.9750    -1.5840     1.5610 cd         1 7DX      -0.288000
     30 C35          8.8810    -1.0780     1.5590 ca         1 7DX      -0.088000
     31 C1          10.2740    -0.9870     1.3890 ca         1 7DX      -0.120000
     32 C2          10.8080    -0.3870     0.2390 ca         1 7DX      -0.111000
     33 C3           9.9470     0.1320    -0.7390 ca         1 7DX      -0.120000
     34 H1           7.9040     0.4560    -1.3410 ha         1 7DX       0.123000
     35 H3           4.4860     2.0250    -1.3500 ha         1 7DX       0.125000
     36 H4          -7.3820     0.6040     0.8260 hc         1 7DX       0.050700
     37 H5          -8.2420     0.0930    -1.4640 hc         1 7DX       0.042700
     38 H6          -8.1600    -1.6330    -1.1430 hc         1 7DX       0.042700
     39 H7          -9.9810     0.4140     0.2650 hc         1 7DX       0.026200
     40 H8         -10.4900    -0.8150    -0.8890 hc         1 7DX       0.026200
     41 H9          -9.0710    -0.3930     2.6390 hc         1 7DX       0.026200
     42 H10         -9.0100    -2.1220     2.9620 hc         1 7DX       0.026200
     43 H11        -10.9560    -1.5250     1.4800 hc         1 7DX       0.024700
     44 H12         -9.8500    -2.6380     0.6780 hc         1 7DX       0.024700
     45 H13         -7.2280    -2.4430     1.2630 hc         1 7DX       0.042700
     46 H14         -6.7580    -1.2080     2.4260 hc         1 7DX       0.042700
     47 H15         -5.6330    -1.4860    -0.5460 hc         1 7DX       0.048700
     48 H17         -4.6740    -0.9830     1.6390 hc         1 7DX       0.052200
     49 H18         -4.8470     0.7770     1.3480 hc         1 7DX       0.052200
     50 H19         -3.3010     1.8200     0.3070 hn         1 7DX       0.221000
     51 H20         -2.1710     3.0170    -1.6660 ha         1 7DX       0.155000
     52 H21          0.1420     3.6770    -2.3990 ha         1 7DX       0.112000
     53 H22          1.7460    -0.4450     0.9360 ha         1 7DX       0.132000
     54 H23          2.5730     3.2760    -2.2620 ha         1 7DX       0.107000
     55 H24          6.4550    -2.3630     2.1370 h4         1 7DX       0.155000
     56 H26          8.4980    -1.5290     2.4700 ha         1 7DX       0.123000
     57 H27         10.9400    -1.3790     2.1550 ha         1 7DX       0.107500
     58 H28         11.8860    -0.3170     0.1100 ha         1 7DX       0.106000
     59 H29         10.3570     0.6070    -1.6280 ha         1 7DX       0.107500
     60 O28         -5.6970     1.6890    -1.1870 o          1 7DX      -0.726000
     61 O27         -5.3590    -0.0060    -2.4670 o          1 7DX      -0.726000
@<TRIPOS>BOND
     1     1     2 ar  
     2     1    33 ar  
     3     1    34 1   
     4     2     3 1   
     5     2    30 ar  
     6     3    27 1   
     7     3    29 2   
     8     4    26 1   
     9     4    27 2   
    10     4    28 1   
    11     5    25 ar  
    12     5    26 ar  
    13     5    35 1   
    14     6    22 ar  
    15     6    23 ar  
    16     6    24 ar  
    17     7    19 1   
    18     7    20 ar  
    19     7    22 ar  
    20     8    17 1   
    21     8    18 2   
    22     8    19 1   
    23     9    10 1   
    24     9    15 1   
    25     9    16 1   
    26     9    36 1   
    27    10    11 1   
    28    10    37 1   
    29    10    38 1   
    30    11    14 1   
    31    11    39 1   
    32    11    40 1   
    33    12    14 1   
    34    12    15 1   
    35    12    41 1   
    36    12    42 1   
    37    13    16 1   
    38    13    60 1   
    39    13    61 1   
    40    14    43 1   
    41    14    44 1   
    42    15    45 1   
    43    15    46 1   
    44    16    17 1   
    45    16    47 1   
    46    17    48 1   
    47    17    49 1   
    48    19    50 1   
    49    20    21 ar  
    50    20    51 1   
    51    21    24 ar  
    52    21    52 1   
    53    23    26 ar  
    54    23    53 1   
    55    24    25 ar  
    56    25    54 1   
    57    28    29 1   
    58    29    55 1   
    59    30    31 ar  
    60    30    56 1   
    61    31    32 ar  
    62    31    57 1   
    63    32    33 ar  
    64    32    58 1   
    65    33    59 1   
@<TRIPOS>SUBSTRUCTURE
     1 7DX         1 TEMP              0 ****  ****    0 ROOT
