@<TRIPOS>MOLECULE
7DY
   61    63     1     0     0
SMALL
bcc


@<TRIPOS>ATOM
      1 CBF         -5.4410     0.8370    -1.2980 ca         1 7DY      -0.271300
      2 CBG         -6.7270     0.3630    -1.2680 ca         1 7DY      -0.017000
      3 CBH         -7.1020    -0.5420    -0.2690 ca         1 7DY      -0.370600
      4 CBJ         -8.4940    -1.0670    -0.2290 c3         1 7DY       0.735200
      5 FAC         -9.3950    -0.0810    -0.1030 f          1 7DY      -0.234967
      6 FAD         -8.8110    -1.7220    -1.3570 f          1 7DY      -0.234967
      7 FAB         -8.6950    -1.9140     0.7850 f          1 7DY      -0.234967
      8 CBI         -6.1440    -0.9190     0.6510 ca         1 7DY       0.503200
      9 NAH         -4.8950    -0.4630     0.6290 nb         1 7DY      -0.775000
     10 CBD         -4.5470     0.3870    -0.3120 ca         1 7DY       0.697600
     11 OAE         -3.3170     0.8820    -0.3880 os         1 7DY      -0.419100
     12 CAP         -2.2480     0.5430     0.4980 c3         1 7DY       0.105800
     13 CAT         -2.5540     1.0100     1.9190 c3         1 7DY      -0.119600
     14 CAU         -1.9050    -0.9460     0.4350 c3         1 7DY      -0.119600
     15 CAQ         -1.0600     1.3200    -0.1200 c          1 7DY       0.673100
     16 OAF         -1.1070     1.7670    -1.2500 o          1 7DY      -0.569100
     17 NAG          0.0270     1.4020     0.6660 ns         1 7DY      -0.581900
     18 CAK          1.2770     2.0300     0.2820 c3         1 7DY       0.115700
     19 CAN          1.5980     3.1630     1.2480 c3         1 7DY      -0.108100
     20 CAJ          2.3980     0.9730     0.2320 c3         1 7DY      -0.028400
     21 CAM          3.7320     1.5870    -0.1080 ca         1 7DY      -0.077300
     22 CAR          4.8240     1.3940     0.7240 ca         1 7DY      -0.083000
     23 CAX          6.0710     1.9200     0.3830 ca         1 7DY      -0.014000
     24 CBE          7.1840     1.7040     1.2510 cg         1 7DY       0.232800
     25 NAI          8.0830     1.5290     1.9500 n1         1 7DY      -0.359800
     26 CAZ          6.2420     2.6480    -0.7920 ca         1 7DY      -0.090000
     27 CAY          5.1510     2.8400    -1.6220 ca         1 7DY      -0.132000
     28 CAS          3.9130     2.3120    -1.2850 ca         1 7DY      -0.107000
     29 CAL          2.0740    -0.1650    -0.7560 c3         1 7DY      -0.024100
     30 CAO          3.1220    -1.2390    -0.7360 ca         1 7DY      -0.080300
     31 CAV          4.1520    -1.2620    -1.6700 ca         1 7DY      -0.116000
     32 CBA          5.1490    -2.2260    -1.6210 ca         1 7DY      -0.119000
     33 CBC          5.1120    -3.1820    -0.6190 ca         1 7DY       0.029400
     34 CLAA         6.3530    -4.3940    -0.5460 cl         1 7DY      -0.111400
     35 CBB          4.0980    -3.1870     0.3260 ca         1 7DY      -0.119000
     36 CAW          3.1120    -2.2150     0.2580 ca         1 7DY      -0.116000
     37 H1          -5.1180     1.5350    -2.0570 ha         1 7DY       0.169000
     38 H2          -7.4340     0.6960    -2.0170 ha         1 7DY       0.154000
     39 H3          -6.3720    -1.6150     1.4490 h4         1 7DY       0.035100
     40 H4          -3.4100     0.4720     2.3170 hc         1 7DY       0.057367
     41 H5          -1.7220     0.8110     2.5950 hc         1 7DY       0.057367
     42 H6          -2.7630     2.0800     1.9490 hc         1 7DY       0.057367
     43 H7          -1.7590    -1.2680    -0.5970 hc         1 7DY       0.057367
     44 H8          -0.9820    -1.1440     0.9800 hc         1 7DY       0.057367
     45 H9          -2.6900    -1.5510     0.8800 hc         1 7DY       0.057367
     46 H10         -0.0190     1.0480     1.6080 hn         1 7DY       0.311500
     47 H11          1.1290     2.4420    -0.7180 h1         1 7DY       0.086700
     48 H12          2.5050     3.6870     0.9530 hc         1 7DY       0.046033
     49 H13          0.7830     3.8860     1.2720 hc         1 7DY       0.046033
     50 H14          1.7480     2.7830     2.2610 hc         1 7DY       0.046033
     51 H15          2.4780     0.5350     1.2340 hc         1 7DY       0.053700
     52 H16          4.7150     0.8260     1.6390 ha         1 7DY       0.143000
     53 H17          7.2120     3.0530    -1.0490 ha         1 7DY       0.146000
     54 H18          5.2670     3.4020    -2.5390 ha         1 7DY       0.140000
     55 H19          3.0790     2.4700    -1.9580 ha         1 7DY       0.139000
     56 H20          1.1050    -0.5940    -0.4930 hc         1 7DY       0.057700
     57 H21          1.9700     0.2450    -1.7640 hc         1 7DY       0.057700
     58 H22          4.1880    -0.5150    -2.4540 ha         1 7DY       0.133000
     59 H23          5.9420    -2.2300    -2.3570 ha         1 7DY       0.148000
     60 H24          4.0720    -3.9390     1.1030 ha         1 7DY       0.148000
     61 H25          2.3190    -2.2230     0.9970 ha         1 7DY       0.133000
@<TRIPOS>BOND
     1     1     2 ar  
     2     1    10 ar  
     3     1    37 1   
     4     2     3 ar  
     5     2    38 1   
     6     3     4 1   
     7     3     8 ar  
     8     4     5 1   
     9     4     6 1   
    10     4     7 1   
    11     8     9 ar  
    12     8    39 1   
    13     9    10 ar  
    14    10    11 1   
    15    11    12 1   
    16    12    13 1   
    17    12    14 1   
    18    12    15 1   
    19    13    40 1   
    20    13    41 1   
    21    13    42 1   
    22    14    43 1   
    23    14    44 1   
    24    14    45 1   
    25    15    16 2   
    26    15    17 1   
    27    17    18 1   
    28    17    46 1   
    29    18    19 1   
    30    18    20 1   
    31    18    47 1   
    32    19    48 1   
    33    19    49 1   
    34    19    50 1   
    35    20    21 1   
    36    20    29 1   
    37    20    51 1   
    38    21    22 ar  
    39    21    28 ar  
    40    22    23 ar  
    41    22    52 1   
    42    23    24 1   
    43    23    26 ar  
    44    24    25 3   
    45    26    27 ar  
    46    26    53 1   
    47    27    28 ar  
    48    27    54 1   
    49    28    55 1   
    50    29    30 1   
    51    29    56 1   
    52    29    57 1   
    53    30    31 ar  
    54    30    36 ar  
    55    31    32 ar  
    56    31    58 1   
    57    32    33 ar  
    58    32    59 1   
    59    33    34 1   
    60    33    35 ar  
    61    35    36 ar  
    62    35    60 1   
    63    36    61 1   
@<TRIPOS>SUBSTRUCTURE
     1 7DY         1 TEMP              0 ****  ****    0 ROOT
