@<TRIPOS>MOLECULE
7DY
   61    63     1     0     0
SMALL
No Charge or Current Charge


@<TRIPOS>ATOM
      1 CBF         -5.6900     1.0970    -1.1170 ca         1 7DY      -0.188000
      2 CBG         -7.0550     0.7930    -1.0310 ca         1 7DY       0.001000
      3 CBH         -7.4460    -0.2460    -0.1670 ca         1 7DY      -0.305300
      4 CBJ         -8.9020    -0.6640    -0.0060 c3         1 7DY       0.371300
      5 FAC         -9.7670     0.2550    -0.4930 f          1 7DY      -0.113667
      6 FAD         -9.1530    -1.8240    -0.6510 f          1 7DY      -0.113667
      7 FAB         -9.2280    -0.8530     1.2920 f          1 7DY      -0.113667
      8 CBI         -6.4520    -0.9290     0.5510 ca         1 7DY       0.437900
      9 NAH         -5.1390    -0.6300     0.4620 nb         1 7DY      -0.775000
     10 CBD         -4.7630     0.3750    -0.3550 ca         1 7DY       0.632300
     11 OAE         -3.4340     0.7300    -0.5090 os         1 7DY      -0.442300
     12 CAP         -2.2900     0.2610     0.2740 c3         1 7DY       0.129000
     13 CAT         -2.5050     0.6590     1.7680 c3         1 7DY      -0.119600
     14 CAU         -2.1420    -1.2750     0.0890 c3         1 7DY      -0.119600
     15 CAQ         -0.9890     0.9230    -0.3290 c          1 7DY       0.606100
     16 OAF         -0.8720     1.1800    -1.5220 o          1 7DY      -0.569100
     17 NAG          0.0000     1.2850     0.5720 ns         1 7DY      -0.514900
     18 CAK          1.2710     1.9300     0.2220 c3         1 7DY       0.115700
     19 CAN          1.4940     3.1340     1.1620 c3         1 7DY      -0.108100
     20 CAJ          2.4530     0.9140     0.2430 c3         1 7DY      -0.028400
     21 CAM          3.7940     1.5810    -0.0860 ca         1 7DY      -0.077300
     22 CAR          4.8700     1.4840     0.8200 ca         1 7DY      -0.065000
     23 CAX          6.1150     2.0690     0.5190 ca         1 7DY      -0.014000
     24 CBE          7.2060     1.9580     1.4470 cg         1 7DY       0.322000
     25 NAI          8.0880     1.8720     2.2090 n1         1 7DY      -0.449000
     26 CAZ          6.2870     2.7570    -0.6960 ca         1 7DY      -0.072000
     27 CAY          5.2210     2.8550    -1.6050 ca         1 7DY      -0.114000
     28 CAS          3.9810     2.2680    -1.3040 ca         1 7DY      -0.089000
     29 CAL          2.2250    -0.3110    -0.6850 c3         1 7DY      -0.024100
     30 CAO          3.4010    -1.2820    -0.6600 ca         1 7DY      -0.080300
     31 CAV          4.3390    -1.2940    -1.7120 ca         1 7DY      -0.098000
     32 CBA          5.4370    -2.1710    -1.6730 ca         1 7DY      -0.101000
     33 CBC          5.6010    -3.0400    -0.5820 ca         1 7DY       0.121000
     34 ClAA         6.9770    -4.1350    -0.5320 cl         1 7DY      -0.203000
     35 CBB          4.6700    -3.0350     0.4690 ca         1 7DY      -0.101000
     36 CAW          3.5720    -2.1570     0.4310 ca         1 7DY      -0.098000
     37 H1          -5.3420     1.8900    -1.7700 ha         1 7DY       0.151000
     38 H2          -7.7790     1.3510    -1.6240 ha         1 7DY       0.136000
     39 H3          -6.7110    -1.7480     1.2210 h4         1 7DY       0.035100
     40 H4          -3.4240     0.2330     2.1830 hc         1 7DY       0.057367
     41 H5          -1.6850     0.2940     2.3960 hc         1 7DY       0.057367
     42 H6          -2.5620     1.7500     1.8730 hc         1 7DY       0.057367
     43 H7          -2.2530    -1.5530    -0.9670 hc         1 7DY       0.057367
     44 H8          -1.1500    -1.6050     0.4190 hc         1 7DY       0.057367
     45 H9          -2.8740    -1.8380     0.6780 hc         1 7DY       0.057367
     46 H10         -0.1710     1.0730     1.5470 hn         1 7DY       0.311500
     47 H11          1.1870     2.3320    -0.7970 h1         1 7DY       0.086700
     48 H12          2.3820     3.7050     0.8690 hc         1 7DY       0.046033
     49 H13          0.6340     3.8130     1.1250 hc         1 7DY       0.046033
     50 H14          1.6250     2.8010     2.1990 hc         1 7DY       0.046033
     51 H15          2.5030     0.5210     1.2670 hc         1 7DY       0.053700
     52 H16          4.7420     0.9450     1.7570 ha         1 7DY       0.125000
     53 H17          7.2460     3.2120    -0.9390 ha         1 7DY       0.128000
     54 H18          5.3570     3.3830    -2.5470 ha         1 7DY       0.122000
     55 H19          3.1690     2.3420    -2.0240 ha         1 7DY       0.121000
     56 H20          1.3180    -0.8440    -0.3780 hc         1 7DY       0.057700
     57 H21          2.0400     0.0380    -1.7080 hc         1 7DY       0.057700
     58 H22          4.2230    -0.6170    -2.5560 ha         1 7DY       0.115000
     59 H23          6.1610    -2.1750    -2.4840 ha         1 7DY       0.130000
     60 H24          4.8010    -3.7080     1.3120 ha         1 7DY       0.130000
     61 H25          2.8580    -2.1540     1.2510 ha         1 7DY       0.115000
@<TRIPOS>BOND
     1     1     2 ar  
     2     1    10 ar  
     3     1    37 1   
     4     2     3 ar  
     5     2    38 1   
     6     3     4 1   
     7     3     8 ar  
     8     4     5 1   
     9     4     6 1   
    10     4     7 1   
    11     8     9 ar  
    12     8    39 1   
    13     9    10 ar  
    14    10    11 1   
    15    11    12 1   
    16    12    13 1   
    17    12    14 1   
    18    12    15 1   
    19    13    40 1   
    20    13    41 1   
    21    13    42 1   
    22    14    43 1   
    23    14    44 1   
    24    14    45 1   
    25    15    16 2   
    26    15    17 1   
    27    17    18 1   
    28    17    46 1   
    29    18    19 1   
    30    18    20 1   
    31    18    47 1   
    32    19    48 1   
    33    19    49 1   
    34    19    50 1   
    35    20    21 1   
    36    20    29 1   
    37    20    51 1   
    38    21    22 ar  
    39    21    28 ar  
    40    22    23 ar  
    41    22    52 1   
    42    23    24 1   
    43    23    26 ar  
    44    24    25 3   
    45    26    27 ar  
    46    26    53 1   
    47    27    28 ar  
    48    27    54 1   
    49    28    55 1   
    50    29    30 1   
    51    29    56 1   
    52    29    57 1   
    53    30    31 ar  
    54    30    36 ar  
    55    31    32 ar  
    56    31    58 1   
    57    32    33 ar  
    58    32    59 1   
    59    33    34 1   
    60    33    35 ar  
    61    35    36 ar  
    62    35    60 1   
    63    36    61 1   
@<TRIPOS>SUBSTRUCTURE
     1 7DY         1 TEMP              0 ****  ****    0 ROOT
