@<TRIPOS>MOLECULE
7DZ
   51    53     1     0     0
SMALL
No Charge or Current Charge


@<TRIPOS>ATOM
      1 C18         -2.1250    -4.3530     0.7650 c3         1 7DZ       0.079300
      2 C16          5.1970    -0.2180     0.8330 ca         1 7DZ       0.161000
      3 C17          3.7960    -0.2420     0.7480 ca         1 7DZ      -0.182500
      4 C15          5.9450     0.7280     0.1020 ca         1 7DZ       0.030100
      5 C14          5.2550     1.6520    -0.7100 ca         1 7DZ       0.161000
      6 N1           1.0700    -1.5500     0.0940 nb         1 7DZ      -0.241000
      7 C13          3.8540     1.6260    -0.7920 ca         1 7DZ      -0.182500
      8 C12          3.1190     0.6720    -0.0750 ca         1 7DZ       0.345000
      9 C11         -4.5130     4.0290    -0.9570 c3         1 7DZ      -0.090100
     10 C10         -6.1460     3.6100     0.9500 c3         1 7DZ      -0.090100
     11 C8          -4.5570     1.7430     0.2410 c3         1 7DZ      -0.089400
     12 C7          -3.1300     1.3130    -0.1830 c3         1 7DZ       0.220800
     13 C6          -1.5270    -0.6470     0.0150 ca         1 7DZ       0.395900
     14 C5           0.7260    -0.2580    -0.0270 ca         1 7DZ       0.403900
     15 C4           0.0630    -2.4340     0.2100 ca         1 7DZ       0.128900
     16 C3          -1.2870    -2.0240     0.2380 ca         1 7DZ      -0.225000
     17 C2          -3.7040    -2.6060    -0.0710 c          1 7DZ       0.567000
     18 C1          -3.9180    -1.1290    -0.5330 c6         1 7DZ       0.145500
     19 N2          -0.5160     0.2340    -0.0980 nb         1 7DZ      -0.304000
     20 F1           5.9420     2.5760    -1.4190 f          1 7DZ      -0.170500
     21 F            5.8220    -1.1120     1.6350 f          1 7DZ      -0.170500
     22 N4           1.7260     0.6910    -0.1770 nu         1 7DZ      -0.928900
     23 N           -2.3770    -2.9810     0.2580 n          1 7DZ      -0.189400
     24 O           -4.6500    -3.3860     0.0110 o          1 7DZ      -0.541000
     25 N3          -2.8460    -0.1520    -0.1270 nh         1 7DZ      -0.761300
     26 C           -4.0660    -1.1040    -2.0800 c3         1 7DZ      -0.117100
     27 H1          -3.0330    -4.7900     1.1980 h1         1 7DZ       0.053367
     28 H2          -1.7780    -4.9900    -0.0590 h1         1 7DZ       0.053367
     29 H3          -1.3590    -4.3290     1.5500 h1         1 7DZ       0.053367
     30 H4           3.2480    -0.9650     1.3420 ha         1 7DZ       0.154500
     31 H5           3.3460     2.3470    -1.4250 ha         1 7DZ       0.154500
     32 H6          -4.6930     5.1040    -0.8310 hc         1 7DZ       0.034867
     33 H7          -3.4800     3.9080    -1.3030 hc         1 7DZ       0.034867
     34 H8          -5.1860     3.6600    -1.7400 hc         1 7DZ       0.034867
     35 H9          -4.0100     3.6460     1.0970 hc         1 7DZ       0.048700
     36 H10         -6.2920     3.1240     1.9220 hc         1 7DZ       0.034867
     37 H11         -6.2590     4.6920     1.0960 hc         1 7DZ       0.034867
     38 H12         -6.9390     3.2700     0.2730 hc         1 7DZ       0.034867
     39 H13         -4.7820     1.2760     1.2080 hc         1 7DZ       0.048200
     40 H14         -5.2860     1.3570    -0.4800 hc         1 7DZ       0.048200
     41 H15         -2.9380     1.6740    -1.2020 h1         1 7DZ       0.057700
     42 H16         -2.4340     1.8410     0.4830 h1         1 7DZ       0.057700
     43 H17          0.3540    -3.4800     0.2830 h4         1 7DZ       0.029100
     44 H18          7.6570     1.4780    -0.3900 ho         1 7DZ       0.475000
     45 H19         -4.8820    -0.8520    -0.0860 h1         1 7DZ       0.096700
     46 H20          1.3520     1.5820    -0.5010 hn         1 7DZ       0.512000
     47 H21         -4.8610    -1.7830    -2.4110 hc         1 7DZ       0.053700
     48 H22         -4.3190    -0.1020    -2.4440 hc         1 7DZ       0.053700
     49 H23         -3.1360    -1.4140    -2.5720 hc         1 7DZ       0.053700
     50 O1           7.3190     0.7550     0.1830 oh         1 7DZ      -0.508100
     51 C9          -4.7510     3.2780     0.3750 c3         1 7DZ      -0.058700
@<TRIPOS>BOND
     1     1    23 1   
     2     1    27 1   
     3     1    28 1   
     4     1    29 1   
     5     2     3 ar  
     6     2     4 ar  
     7     2    21 1   
     8     3     8 ar  
     9     3    30 1   
    10     4     5 ar  
    11     4    50 1   
    12     5     7 ar  
    13     5    20 1   
    14     6    14 ar  
    15     6    15 ar  
    16     7     8 ar  
    17     7    31 1   
    18     8    22 1   
    19     9    32 1   
    20     9    33 1   
    21     9    34 1   
    22     9    51 1   
    23    10    36 1   
    24    10    37 1   
    25    10    38 1   
    26    10    51 1   
    27    11    12 1   
    28    11    39 1   
    29    11    40 1   
    30    11    51 1   
    31    12    25 1   
    32    12    41 1   
    33    12    42 1   
    34    13    16 ar  
    35    13    19 ar  
    36    13    25 1   
    37    14    19 ar  
    38    14    22 1   
    39    15    16 ar  
    40    15    43 1   
    41    16    23 1   
    42    17    18 1   
    43    17    23 1   
    44    17    24 2   
    45    18    25 1   
    46    18    26 1   
    47    18    45 1   
    48    22    46 1   
    49    26    47 1   
    50    26    48 1   
    51    26    49 1   
    52    35    51 1   
    53    44    50 1   
@<TRIPOS>SUBSTRUCTURE
     1 7DZ         1 TEMP              0 ****  ****    0 ROOT
