@<TRIPOS>MOLECULE
7DZ
   51    53     1     0     0
SMALL
abcg2


@<TRIPOS>ATOM
      1 C18         -2.1170    -4.1850     0.8900 c3         1 7DZ       0.079300
      2 C16          5.1080    -0.4430     0.2710 ca         1 7DZ       0.161000
      3 C17          3.7300    -0.4900     0.2460 ca         1 7DZ      -0.182500
      4 C15          5.8510     0.6920    -0.0170 ca         1 7DZ       0.030100
      5 C14          5.1050     1.8190    -0.3360 ca         1 7DZ       0.161000
      6 N1           1.0020    -1.4710     0.1660 nb         1 7DZ      -0.241000
      7 C13          3.7300     1.8310    -0.3760 ca         1 7DZ      -0.182500
      8 C12          3.0170     0.6640    -0.0830 ca         1 7DZ       0.345000
      9 C11         -4.4140     3.8970    -1.0490 c3         1 7DZ      -0.090100
     10 C10         -6.0590     3.5650     0.8100 c3         1 7DZ      -0.090100
     11 C8          -4.5060     1.6980     0.2130 c3         1 7DZ      -0.089400
     12 C7          -3.1070     1.2800    -0.2180 c3         1 7DZ       0.220800
     13 C6          -1.5750    -0.5830     0.0180 ca         1 7DZ       0.395900
     14 C5           0.6690    -0.2070    -0.0010 ca         1 7DZ       0.403900
     15 C4          -0.0120    -2.3380     0.2750 ca         1 7DZ       0.128900
     16 C3          -1.3300    -1.9660     0.2120 ca         1 7DZ      -0.225000
     17 C2          -3.6690    -2.4740     0.1220 c          1 7DZ       0.567000
     18 C1          -3.8610    -1.0900    -0.4730 c6         1 7DZ       0.145500
     19 N2          -0.5750     0.2720    -0.0830 nb         1 7DZ      -0.304000
     20 F1           5.7790     2.9460    -0.6220 f          1 7DZ      -0.170500
     21 F            5.7840    -1.5540     0.6010 f          1 7DZ      -0.170500
     22 N4           1.6350     0.7520    -0.1270 nu         1 7DZ      -0.928900
     23 N           -2.3990    -2.8470     0.4070 n          1 7DZ      -0.189400
     24 O           -4.6300    -3.2080     0.2690 o          1 7DZ      -0.541000
     25 N3          -2.8500    -0.1450    -0.0320 nh         1 7DZ      -0.761300
     26 C           -3.9450    -1.1930    -1.9980 c3         1 7DZ      -0.117100
     27 H1          -3.0500    -4.6910     1.1070 h1         1 7DZ       0.053367
     28 H2          -1.5720    -4.7620     0.1430 h1         1 7DZ       0.053367
     29 H3          -1.5220    -4.1380     1.8020 h1         1 7DZ       0.053367
     30 H4           3.2230    -1.4130     0.4810 ha         1 7DZ       0.154500
     31 H5           3.2180     2.7490    -0.6390 ha         1 7DZ       0.154500
     32 H6          -4.5960     4.9710    -0.9800 hc         1 7DZ       0.034867
     33 H7          -3.3890     3.7650    -1.3990 hc         1 7DZ       0.034867
     34 H8          -5.0810     3.4980    -1.8170 hc         1 7DZ       0.034867
     35 H9          -3.9320     3.5950     1.0160 hc         1 7DZ       0.048700
     36 H10         -6.2550     3.1070     1.7810 hc         1 7DZ       0.034867
     37 H11         -6.1800     4.6440     0.9210 hc         1 7DZ       0.034867
     38 H12         -6.8280     3.2160     0.1170 hc         1 7DZ       0.034867
     39 H13         -4.7220     1.2630     1.1940 hc         1 7DZ       0.048200
     40 H14         -5.2630     1.3090    -0.4780 hc         1 7DZ       0.048200
     41 H15         -2.9210     1.5630    -1.2590 h1         1 7DZ       0.057700
     42 H16         -2.3770     1.8200     0.3840 h1         1 7DZ       0.057700
     43 H17          0.2710    -3.3720     0.4320 h4         1 7DZ       0.029100
     44 H18          7.5790     1.4810    -0.2470 ho         1 7DZ       0.475000
     45 H19         -4.8250    -0.7540    -0.0930 h1         1 7DZ       0.096700
     46 H20          1.2630     1.6720    -0.3080 hn         1 7DZ       0.512000
     47 H21         -4.7240    -1.8950    -2.2930 hc         1 7DZ       0.053700
     48 H22         -4.1950    -0.2230    -2.4300 hc         1 7DZ       0.053700
     49 H23         -2.9990    -1.5220    -2.4300 hc         1 7DZ       0.053700
     50 O1           7.1960     0.6410     0.0300 oh         1 7DZ      -0.508100
     51 C9          -4.6670     3.2170     0.2940 c3         1 7DZ      -0.058700
@<TRIPOS>BOND
     1     1    23 1   
     2     1    27 1   
     3     1    28 1   
     4     1    29 1   
     5     2     3 ar  
     6     2     4 ar  
     7     2    21 1   
     8     3     8 ar  
     9     3    30 1   
    10     4     5 ar  
    11     4    50 1   
    12     5     7 ar  
    13     5    20 1   
    14     6    14 ar  
    15     6    15 ar  
    16     7     8 ar  
    17     7    31 1   
    18     8    22 1   
    19     9    32 1   
    20     9    33 1   
    21     9    34 1   
    22     9    51 1   
    23    10    36 1   
    24    10    37 1   
    25    10    38 1   
    26    10    51 1   
    27    11    12 1   
    28    11    39 1   
    29    11    40 1   
    30    11    51 1   
    31    12    25 1   
    32    12    41 1   
    33    12    42 1   
    34    13    16 ar  
    35    13    19 ar  
    36    13    25 1   
    37    14    19 ar  
    38    14    22 1   
    39    15    16 ar  
    40    15    43 1   
    41    16    23 1   
    42    17    18 1   
    43    17    23 1   
    44    17    24 2   
    45    18    25 1   
    46    18    26 1   
    47    18    45 1   
    48    22    46 1   
    49    26    47 1   
    50    26    48 1   
    51    26    49 1   
    52    35    51 1   
    53    44    50 1   
@<TRIPOS>SUBSTRUCTURE
     1 7DZ         1 TEMP              0 ****  ****    0 ROOT
