@<TRIPOS>MOLECULE
7E0
   39    42     1     0     0
SMALL
No Charge or Current Charge


@<TRIPOS>ATOM
      1 C20          8.6040     6.8930   -17.7670 c3         1 7E0      -0.052900
      2 C13          9.8670     6.1750   -17.3340 c2         1 7E0      -0.112400
      3 C12         10.9440     6.0790   -18.3970 c6         1 7E0      -0.040200
      4 C11         12.3140     5.7310   -17.7830 c6         1 7E0      -0.066400
      5 C14         10.0280     5.6390   -16.1130 c2         1 7E0      -0.242200
      6 C15         11.2420     4.8470   -15.6280 c6         1 7E0       0.213500
      7 O3          10.6740     3.6930   -14.9500 os         1 7E0      -0.462000
      8 C10         12.3300     4.5320   -16.7550 c6         1 7E0      -0.048000
      9 C19         13.7550     4.6380   -16.0970 c3         1 7E0      -0.085100
     10 C9          12.1300     3.0720   -17.4210 c5         1 7E0      -0.020000
     11 C18         12.5660     2.9950   -18.9160 c3         1 7E0      -0.077100
     12 C8          12.8350     1.8900   -16.6420 c5         1 7E0      -0.075400
     13 C7          12.0620     1.7510   -15.2920 c5         1 7E0      -0.095400
     14 C16         10.7220     2.5360   -17.1120 cx         1 7E0       0.069000
     15 C6          10.6730     2.3850   -15.5870 c5         1 7E0       0.182300
     16 C17          9.4940     2.9730   -17.8530 cx         1 7E0       0.115600
     17 O6          10.0210     1.6200   -17.9810 op         1 7E0      -0.454000
     18 H1           7.8530     6.9110   -16.9680 hc         1 7E0       0.040700
     19 H2           8.8160     7.9330   -18.0440 hc         1 7E0       0.040700
     20 H3           8.1500     6.4010   -18.6360 hc         1 7E0       0.040700
     21 H4          11.0360     7.0480   -18.9060 hc         1 7E0       0.046200
     22 H5          10.6520     5.3690   -19.1770 hc         1 7E0       0.046200
     23 H6          13.0540     5.5880   -18.5810 hc         1 7E0       0.043700
     24 H7          12.6480     6.6410   -17.2650 hc         1 7E0       0.043700
     25 H8           9.2300     5.7280   -15.3760 ha         1 7E0       0.182000
     26 H9          11.7190     5.4720   -14.8580 h1         1 7E0       0.075700
     27 H10         13.8680     3.9830   -15.2280 hc         1 7E0       0.039367
     28 H11         14.5480     4.3870   -16.8130 hc         1 7E0       0.039367
     29 H12         13.9630     5.6500   -15.7290 hc         1 7E0       0.039367
     30 H13         13.6120     3.3010   -19.0400 hc         1 7E0       0.041033
     31 H14         12.4850     1.9720   -19.3040 hc         1 7E0       0.041033
     32 H15         11.9500     3.6180   -19.5710 hc         1 7E0       0.041033
     33 H16         12.7500     0.9500   -17.2030 hc         1 7E0       0.050200
     34 H17         13.9110     2.0290   -16.4990 hc         1 7E0       0.050200
     35 H18         11.9630     0.6970   -15.0090 hc         1 7E0       0.058700
     36 H19         12.5740     2.2460   -14.4590 hc         1 7E0       0.058700
     37 H20          9.8390     1.7810   -15.2050 h1         1 7E0       0.078700
     38 H21          9.5720     3.5660   -18.7600 h1         1 7E0       0.077700
     39 H22          8.5530     3.0580   -17.3100 h1         1 7E0       0.077700
@<TRIPOS>BOND
     1     1     2 1   
     2     1    18 1   
     3     1    19 1   
     4     1    20 1   
     5     2     3 1   
     6     2     5 2   
     7     3     4 1   
     8     3    21 1   
     9     3    22 1   
    10     4     8 1   
    11     4    23 1   
    12     4    24 1   
    13     5     6 1   
    14     5    25 1   
    15     6     7 1   
    16     6     8 1   
    17     6    26 1   
    18     7    15 1   
    19     8     9 1   
    20     8    10 1   
    21     9    27 1   
    22     9    28 1   
    23     9    29 1   
    24    10    11 1   
    25    10    12 1   
    26    10    14 1   
    27    11    30 1   
    28    11    31 1   
    29    11    32 1   
    30    12    13 1   
    31    12    33 1   
    32    12    34 1   
    33    13    15 1   
    34    13    35 1   
    35    13    36 1   
    36    14    15 1   
    37    14    16 1   
    38    14    17 1   
    39    15    37 1   
    40    16    17 1   
    41    16    38 1   
    42    16    39 1   
@<TRIPOS>SUBSTRUCTURE
     1 7E0         1 TEMP              0 ****  ****    0 ROOT
