@<TRIPOS>MOLECULE
7E0
   39    42     1     0     0
SMALL
abcg2


@<TRIPOS>ATOM
      1 C20          8.5940     6.7020   -17.8020 c3         1 7E0      -0.052900
      2 C13          9.8960     6.1000   -17.3660 c2         1 7E0      -0.112400
      3 C12         10.9990     6.0750   -18.3830 c6         1 7E0      -0.040200
      4 C11         12.3570     5.7450   -17.7720 c6         1 7E0      -0.066400
      5 C14         10.0760     5.5730   -16.1590 c2         1 7E0      -0.242200
      6 C15         11.3360     4.9170   -15.6590 c6         1 7E0       0.213500
      7 O3          10.9990     3.7780   -14.8450 os         1 7E0      -0.462000
      8 C10         12.3950     4.5880   -16.7460 c6         1 7E0      -0.048000
      9 C19         13.7860     4.6380   -16.0940 c3         1 7E0      -0.085100
     10 C9          12.1180     3.1470   -17.3850 c5         1 7E0      -0.020000
     11 C18         12.4770     3.0660   -18.8650 c3         1 7E0      -0.077100
     12 C8          12.8360     1.9870   -16.6210 c5         1 7E0      -0.075400
     13 C7          11.9450     1.6290   -15.4070 c5         1 7E0      -0.095400
     14 C16         10.6810     2.7680   -17.0440 cx         1 7E0       0.069000
     15 C6          10.7290     2.5530   -15.5450 c5         1 7E0       0.182300
     16 C17          9.4710     2.9760   -17.8150 cx         1 7E0       0.115600
     17 O6          10.0830     1.6670   -17.7640 op         1 7E0      -0.454000
     18 H1           7.8410     6.6500   -17.0150 hc         1 7E0       0.040700
     19 H2           8.7250     7.7490   -18.0920 hc         1 7E0       0.040700
     20 H3           8.2080     6.1790   -18.6840 hc         1 7E0       0.040700
     21 H4          11.0590     7.0520   -18.8740 hc         1 7E0       0.046200
     22 H5          10.7290     5.3730   -19.1780 hc         1 7E0       0.046200
     23 H6          13.0940     5.5650   -18.5550 hc         1 7E0       0.043700
     24 H7          12.6970     6.6370   -17.2390 hc         1 7E0       0.043700
     25 H8           9.2670     5.5890   -15.4340 ha         1 7E0       0.182000
     26 H9          11.8060     5.5960   -14.9410 h1         1 7E0       0.075700
     27 H10         13.8470     3.9990   -15.2130 hc         1 7E0       0.039367
     28 H11         14.5630     4.3290   -16.7970 hc         1 7E0       0.039367
     29 H12         14.0050     5.6590   -15.7800 hc         1 7E0       0.039367
     30 H13         13.5420     3.2550   -19.0040 hc         1 7E0       0.041033
     31 H14         12.2650     2.0630   -19.2360 hc         1 7E0       0.041033
     32 H15         11.9270     3.7720   -19.4820 hc         1 7E0       0.041033
     33 H16         12.8830     1.1350   -17.3000 hc         1 7E0       0.050200
     34 H17         13.8590     2.2260   -16.3480 hc         1 7E0       0.050200
     35 H18         11.6370     0.5840   -15.4430 hc         1 7E0       0.058700
     36 H19         12.4330     1.8030   -14.4480 hc         1 7E0       0.058700
     37 H20          9.8030     2.1350   -15.1480 h1         1 7E0       0.078700
     38 H21          9.5230     3.4610   -18.7840 h1         1 7E0       0.077700
     39 H22          8.5200     3.0580   -17.3000 h1         1 7E0       0.077700
@<TRIPOS>BOND
     1     1     2 1   
     2     1    18 1   
     3     1    19 1   
     4     1    20 1   
     5     2     3 1   
     6     2     5 2   
     7     3     4 1   
     8     3    21 1   
     9     3    22 1   
    10     4     8 1   
    11     4    23 1   
    12     4    24 1   
    13     5     6 1   
    14     5    25 1   
    15     6     7 1   
    16     6     8 1   
    17     6    26 1   
    18     7    15 1   
    19     8     9 1   
    20     8    10 1   
    21     9    27 1   
    22     9    28 1   
    23     9    29 1   
    24    10    11 1   
    25    10    12 1   
    26    10    14 1   
    27    11    30 1   
    28    11    31 1   
    29    11    32 1   
    30    12    13 1   
    31    12    33 1   
    32    12    34 1   
    33    13    15 1   
    34    13    35 1   
    35    13    36 1   
    36    14    15 1   
    37    14    16 1   
    38    14    17 1   
    39    15    37 1   
    40    16    17 1   
    41    16    38 1   
    42    16    39 1   
@<TRIPOS>SUBSTRUCTURE
     1 7E0         1 TEMP              0 ****  ****    0 ROOT
