@<TRIPOS>MOLECULE
7E3
   65    69     1     0     0
SMALL
No Charge or Current Charge


@<TRIPOS>ATOM
      1 C01         47.4670     4.9780     8.4550 ce         1 7E3      -0.093400
      2 C02         46.6890     6.1300     9.1110 c5         1 7E3       0.181500
      3 C03         45.2120     5.6120     9.1950 c5         1 7E3      -0.068400
      4 C05         48.7370     0.6140     0.6260 c3         1 7E3      -0.082400
      5 C06         48.7720     0.8600    -0.9020 c3         1 7E3      -0.055400
      6 C07         49.8830     1.8340    -1.3690 c3         1 7E3      -0.204400
      7 C08         49.9090     1.9120    -2.9060 c          1 7E3       0.707000
      8 C09         43.0940     7.9480     4.9800 ca         1 7E3       0.131100
      9 C10         41.8350     8.5610     5.1160 ca         1 7E3      -0.114000
     10 C11         41.5410     9.7190     4.3780 ca         1 7E3       0.136000
     11 C12         42.4940    10.2600     3.4980 ca         1 7E3      -0.100000
     12 C13         43.7460     9.6360     3.3490 ca         1 7E3      -0.084000
     13 C14         44.0430     8.4770     4.0880 ca         1 7E3      -0.094000
     14 C15         44.8160     5.6370     7.6630 c5         1 7E3      -0.342700
     15 C16         47.1200     4.9980     7.1300 cf         1 7E3      -0.038400
     16 C17         46.1260     6.1760     7.0240 c5         1 7E3       0.217500
     17 C18         48.4220     4.1030     9.1930 ca         1 7E3      -0.061800
     18 C19         47.4390     4.0960     6.0040 ca         1 7E3      -0.114800
     19 C20         49.6310     3.7020     8.5910 ca         1 7E3      -0.061000
     20 C21         50.5350     2.8850     9.2910 ca         1 7E3      -0.171500
     21 C22         50.2420     2.4700    10.5980 ca         1 7E3       0.133100
     22 C23         49.0450     2.8750    11.2100 ca         1 7E3      -0.171500
     23 C24         48.1390     3.6920    10.5110 ca         1 7E3      -0.061000
     24 C25         47.4930     4.5870     4.6830 ca         1 7E3      -0.053000
     25 C26         47.7860     3.7250     3.6110 ca         1 7E3      -0.180500
     26 C27         48.0210     2.3550     3.8490 ca         1 7E3       0.178100
     27 C28         47.9580     1.8630     5.1600 ca         1 7E3      -0.180500
     28 C29         47.6660     2.7240     6.2310 ca         1 7E3      -0.053000
     29 O01         51.1250     1.6790    11.2690 oh         1 7E3      -0.537100
     30 O02         48.3120     1.4620     2.8380 os         1 7E3      -0.358100
     31 O03         50.6000     1.1090    -3.5130 o          1 7E3      -0.741000
     32 O04         49.1950     2.7400    -3.4530 o          1 7E3      -0.741000
     33 O08         46.6030     7.0600     8.0340 os         1 7E3      -0.420000
     34 S01         43.4520     6.8650     7.3230 s6         1 7E3       1.337700
     35 Cl1         39.9700    10.4920     4.5510 cl         1 7E3      -0.201000
     36 H2          47.1200     6.5610    10.0260 h1         1 7E3       0.101700
     37 H3          44.5940     6.2730     9.8150 hc         1 7E3       0.066700
     38 H4          45.1490     4.6080     9.6300 hc         1 7E3       0.066700
     39 H5          49.1850     2.6220     1.3310 h1         1 7E3       0.042700
     40 H6          47.4440     2.2870     1.1200 h1         1 7E3       0.042700
     41 H7          47.9880    -0.1600     0.8350 hc         1 7E3       0.037700
     42 H8          49.7050     0.2130     0.9510 hc         1 7E3       0.037700
     43 H9          47.7940     1.2360    -1.2300 hc         1 7E3       0.046200
     44 H10         48.9160    -0.1070    -1.4020 hc         1 7E3       0.046200
     45 H11         50.8270     1.4190    -0.9920 hc         1 7E3       0.017200
     46 H12         49.6310     2.8140    -0.9450 hc         1 7E3       0.017200
     47 H13         41.0850     8.1440     5.7820 ha         1 7E3       0.152000
     48 H14         42.2600    11.1560     2.9280 ha         1 7E3       0.134000
     49 H15         44.4820    10.0490     2.6630 ha         1 7E3       0.128000
     50 H16         45.0070     7.9890     3.9700 ha         1 7E3       0.136000
     51 H17         44.4900     4.6740     7.2570 h1         1 7E3       0.126700
     52 H19         46.0470     6.6570     6.0390 h1         1 7E3       0.109700
     53 H20         49.8710     4.0270     7.5810 ha         1 7E3       0.120500
     54 H21         51.4650     2.5760     8.8190 ha         1 7E3       0.121500
     55 H22         48.8100     2.5620    12.2240 ha         1 7E3       0.121500
     56 H23         47.2140     3.9980    10.9930 ha         1 7E3       0.120500
     57 H24         47.3250     5.6420     4.4800 ha         1 7E3       0.111000
     58 H25         47.8260     4.1390     2.6080 ha         1 7E3       0.130500
     59 H26         48.1310     0.8070     5.3470 ha         1 7E3       0.130500
     60 H27         47.6020     2.3180     7.2380 ha         1 7E3       0.111000
     61 H28         50.7590     1.4920    12.1600 ho         1 7E3       0.460000
     62 O05         43.4000     6.8070     5.6760 os         1 7E3      -0.461800
     63 C04         48.3990     1.8670     1.4610 c3         1 7E3       0.161600
     64 O06         42.1850     6.3160     7.8230 o          1 7E3      -0.536500
     65 O07         43.8510     8.2210     7.7260 o          1 7E3      -0.536500
@<TRIPOS>BOND
     1     1     2 1   
     2     1    15 2   
     3     1    17 1   
     4     2     3 1   
     5     2    33 1   
     6     2    36 1   
     7     3    14 1   
     8     3    37 1   
     9     3    38 1   
    10     4     5 1   
    11     4    41 1   
    12     4    42 1   
    13     4    63 1   
    14     5     6 1   
    15     5    43 1   
    16     5    44 1   
    17     6     7 1   
    18     6    45 1   
    19     6    46 1   
    20     7    31 1   
    21     7    32 1   
    22     8     9 ar  
    23     8    13 ar  
    24     8    62 1   
    25     9    10 ar  
    26     9    47 1   
    27    10    11 ar  
    28    10    35 1   
    29    11    12 ar  
    30    11    48 1   
    31    12    13 ar  
    32    12    49 1   
    33    13    50 1   
    34    14    16 1   
    35    14    34 1   
    36    14    51 1   
    37    15    16 1   
    38    15    18 1   
    39    16    33 1   
    40    16    52 1   
    41    17    19 ar  
    42    17    23 ar  
    43    18    24 ar  
    44    18    28 ar  
    45    19    20 ar  
    46    19    53 1   
    47    20    21 ar  
    48    20    54 1   
    49    21    22 ar  
    50    21    29 1   
    51    22    23 ar  
    52    22    55 1   
    53    23    56 1   
    54    24    25 ar  
    55    24    57 1   
    56    25    26 ar  
    57    25    58 1   
    58    26    27 ar  
    59    26    30 1   
    60    27    28 ar  
    61    27    59 1   
    62    28    60 1   
    63    29    61 1   
    64    30    63 1   
    65    34    62 1   
    66    34    64 2   
    67    34    65 2   
    68    39    63 1   
    69    40    63 1   
@<TRIPOS>SUBSTRUCTURE
     1 7E3         1 TEMP              0 ****  ****    0 ROOT
