@<TRIPOS>MOLECULE
7E3
   65    69     1     0     0
SMALL
abcg2


@<TRIPOS>ATOM
      1 C01         47.7190     5.0260     8.5180 ce         1 7E3      -0.093400
      2 C02         46.9680     6.1780     9.1840 c5         1 7E3       0.181500
      3 C03         45.4520     5.8300     9.1860 c5         1 7E3      -0.068400
      4 C05         48.2540     0.8520     0.6100 c3         1 7E3      -0.082400
      5 C06         48.3550     1.2140    -0.8750 c3         1 7E3      -0.055400
      6 C07         49.6740     1.8780    -1.2680 c3         1 7E3      -0.204400
      7 C08         49.8310     2.1460    -2.7770 c          1 7E3       0.707000
      8 C09         43.2770     7.7270     4.8500 ca         1 7E3       0.131100
      9 C10         41.9070     7.8290     4.6630 ca         1 7E3      -0.114000
     10 C11         41.4460     8.8000     3.7840 ca         1 7E3       0.136000
     11 C12         42.3180     9.6430     3.1070 ca         1 7E3      -0.100000
     12 C13         43.6860     9.5090     3.3180 ca         1 7E3      -0.084000
     13 C14         44.1780     8.5500     4.1960 ca         1 7E3      -0.094000
     14 C15         45.1580     5.8880     7.6660 c5         1 7E3      -0.342700
     15 C16         47.4210     5.1280     7.2040 cf         1 7E3      -0.038400
     16 C17         46.5370     6.3690     7.1050 c5         1 7E3       0.217500
     17 C18         48.5090     4.0550     9.2650 ca         1 7E3      -0.061800
     18 C19         47.6130     4.2250     6.0720 ca         1 7E3      -0.114800
     19 C20         49.6090     3.4020     8.6870 ca         1 7E3      -0.061000
     20 C21         50.3690     2.4970     9.4040 ca         1 7E3      -0.171500
     21 C22         50.0460     2.2140    10.7320 ca         1 7E3       0.133100
     22 C23         48.9680     2.8590    11.3330 ca         1 7E3      -0.171500
     23 C24         48.2170     3.7730    10.6060 ca         1 7E3      -0.061000
     24 C25         47.8010     4.7270     4.7810 ca         1 7E3      -0.053000
     25 C26         47.9560     3.8870     3.6830 ca         1 7E3      -0.180500
     26 C27         47.9080     2.5040     3.8610 ca         1 7E3       0.178100
     27 C28         47.7040     1.9840     5.1450 ca         1 7E3      -0.180500
     28 C29         47.5570     2.8300     6.2250 ca         1 7E3      -0.053000
     29 O01         50.8240     1.3100    11.3940 oh         1 7E3      -0.537100
     30 O02         48.0340     1.5950     2.8630 os         1 7E3      -0.358100
     31 O03         50.9850     2.0060    -3.2630 o          1 7E3      -0.741000
     32 O04         48.8060     2.5080    -3.4120 o          1 7E3      -0.741000
     33 O08         47.0140     7.1950     8.1660 os         1 7E3      -0.420000
     34 S01         43.8180     6.9980     7.2920 s6         1 7E3       1.337700
     35 CL1         39.7240     8.9580     3.5260 cl         1 7E3      -0.201000
     36 H2          47.3620     6.5510    10.1240 h1         1 7E3       0.101700
     37 H3          44.8990     6.5850     9.7430 hc         1 7E3       0.066700
     38 H4          45.2320     4.8520     9.6060 hc         1 7E3       0.066700
     39 H5          49.1310     2.6490     1.4580 h1         1 7E3       0.042700
     40 H6          47.3710     2.7160     1.2480 h1         1 7E3       0.042700
     41 H7          47.3460     0.2670     0.7800 hc         1 7E3       0.037700
     42 H8          49.1000     0.2210     0.8980 hc         1 7E3       0.037700
     43 H9          47.5220     1.8660    -1.1510 hc         1 7E3       0.046200
     44 H10         48.2330     0.2980    -1.4580 hc         1 7E3       0.046200
     45 H11         50.5150     1.2680    -0.9300 hc         1 7E3       0.017200
     46 H12         49.7730     2.8470    -0.7660 hc         1 7E3       0.017200
     47 H13         41.2290     7.1690     5.1840 ha         1 7E3       0.152000
     48 H14         41.9330    10.3900     2.4260 ha         1 7E3       0.134000
     49 H15         44.3720    10.1610     2.7940 ha         1 7E3       0.128000
     50 H16         45.2380     8.4360     4.3750 ha         1 7E3       0.136000
     51 H17         44.8430     4.9370     7.2410 h1         1 7E3       0.126700
     52 H19         46.5060     6.8990     6.1600 h1         1 7E3       0.109700
     53 H20         49.8780     3.6190     7.6620 ha         1 7E3       0.120500
     54 H21         51.2200     2.0060     8.9500 ha         1 7E3       0.121500
     55 H22         48.7200     2.6460    12.3670 ha         1 7E3       0.121500
     56 H23         47.3830     4.2620    11.0930 ha         1 7E3       0.120500
     57 H24         47.8420     5.7970     4.6220 ha         1 7E3       0.111000
     58 H25         48.1080     4.3180     2.7040 ha         1 7E3       0.130500
     59 H26         47.6500     0.9100     5.2710 ha         1 7E3       0.130500
     60 H27         47.3850     2.4100     7.2070 ha         1 7E3       0.111000
     61 H28         50.5050     1.2010    12.3010 ho         1 7E3       0.460000
     62 O05         43.7750     6.7240     5.6920 os         1 7E3      -0.461800
     63 C04         48.2090     2.0650     1.5160 c3         1 7E3       0.161600
     64 O06         42.5950     6.5030     7.8690 o          1 7E3      -0.536500
     65 O07         44.1610     8.3790     7.5120 o          1 7E3      -0.536500
@<TRIPOS>BOND
     1     1     2 1   
     2     1    15 2   
     3     1    17 1   
     4     2     3 1   
     5     2    33 1   
     6     2    36 1   
     7     3    14 1   
     8     3    37 1   
     9     3    38 1   
    10     4     5 1   
    11     4    41 1   
    12     4    42 1   
    13     4    63 1   
    14     5     6 1   
    15     5    43 1   
    16     5    44 1   
    17     6     7 1   
    18     6    45 1   
    19     6    46 1   
    20     7    31 1   
    21     7    32 1   
    22     8     9 ar  
    23     8    13 ar  
    24     8    62 1   
    25     9    10 ar  
    26     9    47 1   
    27    10    11 ar  
    28    10    35 1   
    29    11    12 ar  
    30    11    48 1   
    31    12    13 ar  
    32    12    49 1   
    33    13    50 1   
    34    14    16 1   
    35    14    34 1   
    36    14    51 1   
    37    15    16 1   
    38    15    18 1   
    39    16    33 1   
    40    16    52 1   
    41    17    19 ar  
    42    17    23 ar  
    43    18    24 ar  
    44    18    28 ar  
    45    19    20 ar  
    46    19    53 1   
    47    20    21 ar  
    48    20    54 1   
    49    21    22 ar  
    50    21    29 1   
    51    22    23 ar  
    52    22    55 1   
    53    23    56 1   
    54    24    25 ar  
    55    24    57 1   
    56    25    26 ar  
    57    25    58 1   
    58    26    27 ar  
    59    26    30 1   
    60    27    28 ar  
    61    27    59 1   
    62    28    60 1   
    63    29    61 1   
    64    30    63 1   
    65    34    62 1   
    66    34    64 2   
    67    34    65 2   
    68    39    63 1   
    69    40    63 1   
@<TRIPOS>SUBSTRUCTURE
     1 7E3         1 TEMP              0 ****  ****    0 ROOT
