@<TRIPOS>MOLECULE
7E5
   29    30     1     0     0
SMALL
No Charge or Current Charge


@<TRIPOS>ATOM
      1 N1          -2.5480    -0.9580     1.1480 n7         1 7E5      -0.839400
      2 C4          -2.6450     0.3700     0.4520 c5         1 7E5       0.019500
      3 C5          -4.0910     1.0140     0.3320 c          1 7E5       0.721000
      4 C6           1.4930    -0.5560    -0.2920 ca         1 7E5       0.175100
      5 C7           1.7270    -1.9550    -0.4070 ca         1 7E5      -0.233000
      6 C8           3.0020    -2.4880    -0.1560 ca         1 7E5      -0.114000
      7 C10          3.8480    -0.2610     0.3080 ca         1 7E5      -0.078000
      8 O1          -4.2430     2.1910     0.6320 o          1 7E5      -0.743000
      9 O2          -5.0390     0.3110    -0.0000 o          1 7E5      -0.743000
     10 C1          -2.1110     0.0210    -0.9650 c5         1 7E5      -0.086400
     11 C3          -1.1900    -1.4430     0.7810 c5         1 7E5       0.115800
     12 C2          -0.8640    -0.8510    -0.6440 c5         1 7E5       0.125300
     13 O3           0.2680     0.0620    -0.5480 os         1 7E5      -0.297100
     14 C9           4.0610    -1.6430     0.2010 ca         1 7E5      -0.192000
     15 C11          2.5700     0.2830     0.0640 ca         1 7E5      -0.150600
     16 C12          2.3680     1.7630     0.1860 c          1 7E5       0.725600
     17 O5           2.8820     2.4820    -0.6600 o          1 7E5      -0.720000
     18 O4           1.7980     2.1900     1.1810 o          1 7E5      -0.720000
     19 H1          -3.2500    -1.5760     0.7200 hn         1 7E5       0.413000
     20 H3          -1.9890     1.1060     0.9390 h1         1 7E5       0.060700
     21 H4           0.9490    -2.6530    -0.6930 ha         1 7E5       0.097000
     22 H5           3.1700    -3.5590    -0.2440 ha         1 7E5       0.071000
     23 H6           4.6730     0.3940     0.5820 ha         1 7E5       0.107000
     24 H8          -2.8460    -0.5540    -1.5410 hc         1 7E5       0.056200
     25 H9          -1.8690     0.9130    -1.5540 hc         1 7E5       0.056200
     26 H10         -0.4580    -1.0910     1.5220 h1         1 7E5       0.040200
     27 H11         -1.1530    -2.5410     0.7830 h1         1 7E5       0.040200
     28 H12         -0.6990    -1.5980    -1.4310 h1         1 7E5       0.018700
     29 H13          5.0480    -2.0570     0.3920 ha         1 7E5       0.074000
@<TRIPOS>BOND
     1     1     2 1   
     2     1    11 1   
     3     1    19 1   
     4     2     3 1   
     5     2    10 1   
     6     2    20 1   
     7     3     8 1   
     8     3     9 1   
     9     4     5 ar  
    10     4    13 1   
    11     4    15 ar  
    12     5     6 ar  
    13     5    21 1   
    14     6    14 ar  
    15     6    22 1   
    16     7    14 ar  
    17     7    15 ar  
    18     7    23 1   
    19    10    12 1   
    20    10    24 1   
    21    10    25 1   
    22    11    12 1   
    23    11    26 1   
    24    11    27 1   
    25    12    13 1   
    26    12    28 1   
    27    14    29 1   
    28    15    16 1   
    29    16    17 1   
    30    16    18 1   
@<TRIPOS>SUBSTRUCTURE
     1 7E5         1 TEMP              0 ****  ****    0 ROOT
