@<TRIPOS>MOLECULE
7E5
   29    30     1     0     0
SMALL
bcc


@<TRIPOS>ATOM
      1 N1          -2.7500    -1.0200     1.0710 n7         1 7E5      -0.784200
      2 C4          -2.9810     0.2820     0.4660 c5         1 7E5       0.019500
      3 C5          -4.3960     0.4520    -0.1050 c          1 7E5       0.931600
      4 C6           1.5840    -0.5380    -0.0780 ca         1 7E5       0.175100
      5 C7           1.6730    -1.9290    -0.1370 ca         1 7E5      -0.251000
      6 C8           2.9150    -2.5530    -0.1650 ca         1 7E5      -0.132000
      7 C10          3.9810    -0.4150    -0.1110 ca         1 7E5      -0.096000
      8 O1          -4.7570     1.6240    -0.3230 o          1 7E5      -0.848300
      9 O2          -5.0420    -0.5880    -0.3460 o          1 7E5      -0.848300
     10 C1          -1.9100     0.4360    -0.6420 c5         1 7E5      -0.086400
     11 C3          -1.3150    -1.2120     1.0380 c5         1 7E5       0.115800
     12 C2          -0.8010    -0.5570    -0.2650 c5         1 7E5       0.102100
     13 O3           0.4210     0.1400    -0.1010 os         1 7E5      -0.273900
     14 C9           4.0770    -1.8010    -0.1540 ca         1 7E5      -0.210000
     15 C11          2.7560     0.2350    -0.0480 ca         1 7E5      -0.150600
     16 C12          2.7310     1.7520     0.0690 c          1 7E5       0.936200
     17 O5           3.4210     2.3750    -0.7610 o          1 7E5      -0.825300
     18 O4           2.0640     2.2280     1.0020 o          1 7E5      -0.825300
     19 H1          -3.2150    -1.7150     0.4970 hn         1 7E5       0.357800
     20 H3          -2.8090     1.0530     1.2250 h1         1 7E5       0.060700
     21 H4           0.7870    -2.5490    -0.1620 ha         1 7E5       0.115000
     22 H5           2.9610    -3.6340    -0.2020 ha         1 7E5       0.089000
     23 H6           4.8850     0.1830    -0.1170 ha         1 7E5       0.125000
     24 H8          -2.3240     0.1740    -1.6180 hc         1 7E5       0.056200
     25 H9          -1.5250     1.4530    -0.7160 hc         1 7E5       0.056200
     26 H10         -0.8570    -0.6970     1.8870 h1         1 7E5       0.040200
     27 H11         -1.0670    -2.2700     1.1260 h1         1 7E5       0.040200
     28 H12         -0.6890    -1.3090    -1.0550 h1         1 7E5       0.018700
     29 H13          5.0460    -2.2830    -0.1840 ha         1 7E5       0.092000
@<TRIPOS>BOND
     1     1     2 1   
     2     1    11 1   
     3     1    19 1   
     4     2     3 1   
     5     2    10 1   
     6     2    20 1   
     7     3     8 1   
     8     3     9 1   
     9     4     5 ar  
    10     4    13 1   
    11     4    15 ar  
    12     5     6 ar  
    13     5    21 1   
    14     6    14 ar  
    15     6    22 1   
    16     7    14 ar  
    17     7    15 ar  
    18     7    23 1   
    19    10    12 1   
    20    10    24 1   
    21    10    25 1   
    22    11    12 1   
    23    11    26 1   
    24    11    27 1   
    25    12    13 1   
    26    12    28 1   
    27    14    29 1   
    28    15    16 1   
    29    16    17 1   
    30    16    18 1   
@<TRIPOS>SUBSTRUCTURE
     1 7E5         1 TEMP              0 ****  ****    0 ROOT
