@<TRIPOS>MOLECULE
7E7
   37    40     1     0     0
SMALL
abcg2


@<TRIPOS>ATOM
      1 C4          -1.7350    -3.5410    -0.3770 ca         1 7E7      -0.082000
      2 C5          -1.7520    -2.3430    -1.0730 ca         1 7E7      -0.146500
      3 C6          -1.7740    -1.1490    -0.3660 ca         1 7E7       0.138100
      4 C8          -1.7020     1.1960    -0.5590 cc         1 7E7       0.091100
      5 C10         -1.1720     3.1360     0.3070 cd         1 7E7       0.275900
      6 N12         -2.7700     2.0020    -0.4820 na         1 7E7       0.125800
      7 C13          0.7580     1.4460     0.0690 cd         1 7E7       0.431500
      8 C15          3.0720     1.9620     0.5620 cc         1 7E7      -0.023000
      9 C21          3.3320     0.5940     0.3140 cc         1 7E7      -0.154000
     10 C1          -1.7890    -1.1370     1.0190 ca         1 7E7      -0.146500
     11 C14          1.7900     2.3780     0.4430 cd         1 7E7      -0.146000
     12 C19          2.7600    -1.4410    -0.1980 cc         1 7E7       0.366800
     13 C2          -1.7680    -2.3470     1.7000 ca         1 7E7      -0.082000
     14 C23         -4.1340     1.6920    -0.8470 c3         1 7E7       0.066900
     15 C3          -1.7380    -3.5510     1.0120 ca         1 7E7      -0.134000
     16 C9          -0.6140     1.8930    -0.0550 cd         1 7E7      -0.299500
     17 N11         -2.4590     3.1870     0.0480 nc         1 7E7      -0.505800
     18 N16          0.9950     0.1890    -0.1690 nc         1 7E7      -0.466800
     19 N17          4.4150    -0.1430     0.3490 nd         1 7E7      -0.070000
     20 N18          4.0480    -1.4020     0.0320 nd         1 7E7      -0.373700
     21 N20          2.2630    -0.1890    -0.0330 na         1 7E7       0.126000
     22 O7          -1.8020    -0.0060    -1.1330 os         1 7E7      -0.226200
     23 H1          -1.7140    -4.4720    -0.9290 ha         1 7E7       0.118000
     24 H2          -1.7420    -2.3320    -2.1550 ha         1 7E7       0.129500
     25 H3          -0.6760     3.9880     0.7470 h4         1 7E7       0.043100
     26 H4           3.8770     2.6300     0.8340 ha         1 7E7       0.151000
     27 H5           1.1270    -2.7590     0.1600 hc         1 7E7       0.063033
     28 H6           1.4670    -2.4800    -1.5380 hc         1 7E7       0.063033
     29 H7           2.5520    -3.5030    -0.5860 hc         1 7E7       0.063033
     30 H8          -1.8120    -0.2090     1.5770 ha         1 7E7       0.129500
     31 H9           1.5340     3.4120     0.6180 ha         1 7E7       0.135000
     32 H10         -1.7740    -2.3400     2.7820 ha         1 7E7       0.118000
     33 H11         -4.6630     1.2340    -0.0130 h1         1 7E7       0.065700
     34 H12         -4.6320     2.6160    -1.1230 h1         1 7E7       0.065700
     35 H13         -4.1500     1.0160    -1.6970 h1         1 7E7       0.065700
     36 H14         -1.7210    -4.4880     1.5530 ha         1 7E7       0.120000
     37 C22          1.9320    -2.6110    -0.5600 c3         1 7E7      -0.097400
@<TRIPOS>BOND
     1     1     2 ar  
     2     1    15 ar  
     3     1    23 1   
     4     2     3 ar  
     5     2    24 1   
     6     3    10 ar  
     7     3    22 1   
     8     4     6 1   
     9     4    16 2   
    10     4    22 1   
    11     5    16 1   
    12     5    17 2   
    13     5    25 1   
    14     6    14 1   
    15     6    17 1   
    16     7    11 1   
    17     7    16 1   
    18     7    18 2   
    19     8     9 1   
    20     8    11 2   
    21     8    26 1   
    22     9    19 2   
    23     9    21 1   
    24    10    13 ar  
    25    10    30 1   
    26    11    31 1   
    27    12    20 2   
    28    12    21 1   
    29    12    37 1   
    30    13    15 ar  
    31    13    32 1   
    32    14    33 1   
    33    14    34 1   
    34    14    35 1   
    35    15    36 1   
    36    18    21 1   
    37    19    20 1   
    38    27    37 1   
    39    28    37 1   
    40    29    37 1   
@<TRIPOS>SUBSTRUCTURE
     1 7E7         1 TEMP              0 ****  ****    0 ROOT
