@<TRIPOS>MOLECULE
7E7
   37    40     1     0     0
SMALL
No Charge or Current Charge


@<TRIPOS>ATOM
      1 C4          -1.7030    -3.5800    -0.0040 ca         1 7E7      -0.082000
      2 C5          -1.5930    -2.4420    -0.8210 ca         1 7E7      -0.146500
      3 C6          -1.7770    -1.1520    -0.2900 ca         1 7E7       0.138100
      4 C8          -1.7000     1.1260    -0.5460 cc         1 7E7       0.091100
      5 C10         -1.1440     3.0810     0.3190 cd         1 7E7       0.275900
      6 N12         -2.7770     1.9960    -0.5070 na         1 7E7       0.125800
      7 C13          0.7520     1.3690     0.0500 cd         1 7E7       0.431500
      8 C15          3.0320     1.9090     0.7240 cc         1 7E7      -0.023000
      9 C21          3.3450     0.5890     0.3160 cc         1 7E7      -0.154000
     10 C1          -2.0870    -1.0160     1.0900 ca         1 7E7      -0.146500
     11 C14          1.7230     2.3070     0.5950 cd         1 7E7      -0.146000
     12 C19          2.9280    -1.4320    -0.4850 cc         1 7E7       0.366800
     13 C2          -2.1980    -2.1570     1.9050 ca         1 7E7      -0.082000
     14 C23         -4.1410     1.7350    -0.9840 c3         1 7E7       0.066900
     15 C3          -2.0050    -3.4360     1.3600 ca         1 7E7      -0.134000
     16 C9          -0.6220     1.8180    -0.0600 cd         1 7E7      -0.299500
     17 N11         -2.4400     3.2130     0.0590 nc         1 7E7      -0.505800
     18 N16          1.0410     0.1190    -0.3470 nc         1 7E7      -0.466800
     19 N17          4.4810    -0.0830     0.3200 nd         1 7E7      -0.070000
     20 N18          4.2210    -1.3550    -0.1820 nd         1 7E7      -0.373700
     21 N20          2.3730    -0.2160    -0.1800 na         1 7E7       0.126000
     22 O7          -1.6390    -0.0900    -1.1780 os         1 7E7      -0.226200
     23 H1          -1.5550    -4.5710    -0.4270 ha         1 7E7       0.118000
     24 H2          -1.3570    -2.5570    -1.8750 ha         1 7E7       0.129500
     25 H3          -0.6260     3.9220     0.7610 h4         1 7E7       0.043100
     26 H4           3.8020     2.5630     1.1240 ha         1 7E7       0.151000
     27 H5           1.4670    -2.9980    -0.3250 hc         1 7E7       0.063033
     28 H6           1.6840    -2.3670    -1.9690 hc         1 7E7       0.063033
     29 H7           2.9070    -3.4420    -1.2630 hc         1 7E7       0.063033
     30 H8          -2.2450    -0.0450     1.5520 ha         1 7E7       0.129500
     31 H9           1.4430     3.3060     0.8990 ha         1 7E7       0.135000
     32 H10         -2.4330    -2.0480     2.9620 ha         1 7E7       0.118000
     33 H11         -4.3780     0.6720    -0.8550 h1         1 7E7       0.065700
     34 H12         -4.8570     2.3360    -0.4110 h1         1 7E7       0.065700
     35 H13         -4.2110     1.9970    -2.0460 h1         1 7E7       0.065700
     36 H14         -2.0900    -4.3160     1.9930 ha         1 7E7       0.120000
     37 C22          2.2070    -2.6280    -1.0420 c3         1 7E7      -0.097400
@<TRIPOS>BOND
     1     1     2 ar  
     2     1    15 ar  
     3     1    23 1   
     4     2     3 ar  
     5     2    24 1   
     6     3    10 ar  
     7     3    22 1   
     8     4     6 1   
     9     4    16 2   
    10     4    22 1   
    11     5    16 1   
    12     5    17 2   
    13     5    25 1   
    14     6    14 1   
    15     6    17 1   
    16     7    11 1   
    17     7    16 1   
    18     7    18 2   
    19     8     9 1   
    20     8    11 2   
    21     8    26 1   
    22     9    19 2   
    23     9    21 1   
    24    10    13 ar  
    25    10    30 1   
    26    11    31 1   
    27    12    20 2   
    28    12    21 1   
    29    12    37 1   
    30    13    15 ar  
    31    13    32 1   
    32    14    33 1   
    33    14    34 1   
    34    14    35 1   
    35    15    36 1   
    36    18    21 1   
    37    19    20 1   
    38    27    37 1   
    39    28    37 1   
    40    29    37 1   
@<TRIPOS>SUBSTRUCTURE
     1 7E7         1 TEMP              0 ****  ****    0 ROOT
