@<TRIPOS>MOLECULE
7E8
   53    52     1     0     0
SMALL
abcg2


@<TRIPOS>ATOM
      1 O22          9.1430    -2.0110     0.1300 oh         1 7E8      -0.643000
      2 C19          8.3810    -0.8920    -0.2510 c3         1 7E8       0.128600
      3 O20          6.7290    -1.3490     1.4800 oh         1 7E8      -0.626000
      4 C17          6.0740    -0.0140    -0.4410 c3         1 7E8       0.128600
      5 O16          4.7120    -0.3000    -0.1280 os         1 7E8      -0.434100
      6 C8           3.7950     0.6000    -0.4680 c          1 7E8       0.592100
      7 O15          4.0580     1.6250    -1.0450 o          1 7E8      -0.491000
      8 C7           2.4170     0.1720    -0.0430 c3         1 7E8      -0.137400
      9 C6           1.3580     1.2470    -0.2330 c3         1 7E8      -0.068400
     10 C5          -0.0080     0.7930     0.2650 c3         1 7E8      -0.077400
     11 C4          -1.0860     1.8530     0.0840 c3         1 7E8      -0.072400
     12 C3          -2.4410     1.4180     0.6410 c3         1 7E8      -0.043200
     13 C2          -3.4920     2.4700     0.4690 c2         1 7E8      -0.216200
     14 C1          -4.6710     2.3480    -0.1400 c2         1 7E8      -0.215200
     15 C9          -5.2470     1.1150    -0.7650 c3         1 7E8      -0.044200
     16 C10         -6.4230     0.5590     0.0420 c3         1 7E8      -0.072400
     17 C11         -7.0340    -0.6890    -0.5820 c3         1 7E8      -0.075400
     18 C12         -8.2040    -1.2490     0.2180 c3         1 7E8      -0.075400
     19 C13         -8.7920    -2.5190    -0.3840 c3         1 7E8      -0.075400
     20 C14         -9.9600    -3.0740     0.4200 c3         1 7E8      -0.088100
     21 C18          6.9240    -1.1500     0.1010 c3         1 7E8       0.164300
     22 H22         10.0670    -1.8190    -0.0520 ho         1 7E8       0.445000
     23 H191         8.7190     0.0210     0.2600 h1         1 7E8       0.021700
     24 H192         8.4560    -0.6970    -1.3290 h1         1 7E8       0.021700
     25 H18          6.6180    -2.0820    -0.3840 h1         1 7E8       0.098700
     26 H20          7.0520    -0.5740     1.9520 ho         1 7E8       0.436000
     27 H171         6.2050     0.0730    -1.5230 h1         1 7E8       0.050200
     28 H172         6.3710     0.9380     0.0100 h1         1 7E8       0.050200
     29 H7           2.1510    -0.7290    -0.6080 hc         1 7E8       0.073700
     30 H8           2.4610    -0.1450     1.0030 hc         1 7E8       0.073700
     31 H61C         1.6540     2.1540     0.3010 hc         1 7E8       0.054200
     32 H62C         1.2900     1.5190    -1.2900 hc         1 7E8       0.054200
     33 H51C        -0.3070    -0.1210    -0.2590 hc         1 7E8       0.038200
     34 H52C         0.0630     0.5260     1.3250 hc         1 7E8       0.038200
     35 H41C        -0.7720     2.7800     0.5750 hc         1 7E8       0.042200
     36 H42C        -1.1910     2.0910    -0.9790 hc         1 7E8       0.042200
     37 H31C        -2.7450     0.4790     0.1720 hc         1 7E8       0.044700
     38 H32C        -2.3250     1.2010     1.7090 hc         1 7E8       0.044700
     39 H2          -3.2400     3.4420     0.8900 ha         1 7E8       0.165000
     40 H1          -5.3160     3.2230    -0.1680 ha         1 7E8       0.166000
     41 H91C        -5.5960     1.3550    -1.7750 hc         1 7E8       0.043200
     42 H92C        -4.4880     0.3380    -0.8790 hc         1 7E8       0.043200
     43 H101        -6.0810     0.3310     1.0560 hc         1 7E8       0.039700
     44 H102        -7.1920     1.3320     0.1440 hc         1 7E8       0.039700
     45 H111        -7.3650    -0.4630    -1.6010 hc         1 7E8       0.036700
     46 H112        -6.2600    -1.4590    -0.6780 hc         1 7E8       0.036700
     47 H121        -7.8770    -1.4540     1.2440 hc         1 7E8       0.037700
     48 H122        -8.9880    -0.4880     0.2960 hc         1 7E8       0.037700
     49 H131        -9.1180    -2.3170    -1.4090 hc         1 7E8       0.036700
     50 H132        -8.0080    -3.2790    -0.4590 hc         1 7E8       0.036700
     51 H141        -9.6560    -3.3180     1.4400 hc         1 7E8       0.031367
     52 H142       -10.7760    -2.3520     0.4850 hc         1 7E8       0.031367
     53 H143       -10.3590    -3.9830    -0.0300 hc         1 7E8       0.031367
@<TRIPOS>BOND
     1     1     2 1   
     2     1    22 1   
     3     2    21 1   
     4     2    23 1   
     5     2    24 1   
     6     3    21 1   
     7     3    26 1   
     8     4     5 1   
     9     4    21 1   
    10     4    27 1   
    11     4    28 1   
    12     5     6 1   
    13     6     7 2   
    14     6     8 1   
    15     8     9 1   
    16     8    29 1   
    17     8    30 1   
    18     9    10 1   
    19     9    31 1   
    20     9    32 1   
    21    10    11 1   
    22    10    33 1   
    23    10    34 1   
    24    11    12 1   
    25    11    35 1   
    26    11    36 1   
    27    12    13 1   
    28    12    37 1   
    29    12    38 1   
    30    13    14 2   
    31    13    39 1   
    32    14    15 1   
    33    14    40 1   
    34    15    16 1   
    35    15    41 1   
    36    15    42 1   
    37    16    17 1   
    38    16    43 1   
    39    16    44 1   
    40    17    18 1   
    41    17    45 1   
    42    17    46 1   
    43    18    19 1   
    44    18    47 1   
    45    18    48 1   
    46    19    20 1   
    47    19    49 1   
    48    19    50 1   
    49    20    51 1   
    50    20    52 1   
    51    20    53 1   
    52    21    25 1   
@<TRIPOS>SUBSTRUCTURE
     1 7E8         1 TEMP              0 ****  ****    0 ROOT
