@<TRIPOS>MOLECULE
7E8
   53    52     1     0     0
SMALL
No Charge or Current Charge


@<TRIPOS>ATOM
      1 O22          8.9240     0.5290     0.4470 oh         1 7E8      -0.643000
      2 C19          7.9780     0.0030    -0.5010 c3         1 7E8       0.128600
      3 O20          6.2220     1.2430     0.6320 oh         1 7E8      -0.626000
      4 C17          5.4980    -0.5660    -0.8750 c3         1 7E8       0.128600
      5 O16          4.2480    -0.7560    -0.1810 os         1 7E8      -0.434100
      6 C8           3.1650    -1.1800    -0.9060 c          1 7E8       0.592100
      7 O15          3.1800    -1.3980    -2.1100 o          1 7E8      -0.491000
      8 C7           1.9130    -1.3100    -0.0360 c3         1 7E8      -0.137400
      9 C6           1.0600    -0.0200    -0.0800 c3         1 7E8      -0.068400
     10 C5          -0.2120    -0.1070     0.7920 c3         1 7E8      -0.077400
     11 C4          -1.0650     1.1800     0.7470 c3         1 7E8      -0.072400
     12 C3          -2.3370     1.0950     1.6150 c3         1 7E8      -0.043200
     13 C2          -3.1620     2.3660     1.5450 c2         1 7E8      -0.216200
     14 C1          -4.2240     2.5930     0.7520 c2         1 7E8      -0.215200
     15 C9          -4.8110     1.6450    -0.2770 c3         1 7E8      -0.044200
     16 C10         -6.0060     0.8470     0.2830 c3         1 7E8      -0.072400
     17 C11         -6.6140    -0.1350    -0.7420 c3         1 7E8      -0.075400
     18 C12         -7.8090    -0.9350    -0.1770 c3         1 7E8      -0.075400
     19 C13         -8.4170    -1.9180    -1.2020 c3         1 7E8      -0.075400
     20 C14         -9.6080    -2.7170    -0.6390 c3         1 7E8      -0.088100
     21 C18          6.5650    -0.0660     0.1340 c3         1 7E8       0.164300
     22 H22          9.8090     0.5050     0.0170 ho         1 7E8       0.445000
     23 H191         7.9450     0.6380    -1.3970 h1         1 7E8       0.021700
     24 H192         8.2780    -1.0050    -0.8170 h1         1 7E8       0.021700
     25 H18          6.6080    -0.7880     0.9610 h1         1 7E8       0.098700
     26 H20          7.0690     1.6100     0.9710 ho         1 7E8       0.436000
     27 H171         5.8370    -1.5130    -1.3170 h1         1 7E8       0.050200
     28 H172         5.3900     0.1680    -1.6850 h1         1 7E8       0.050200
     29 H7           1.3100    -2.1520    -0.3980 hc         1 7E8       0.073700
     30 H8           2.2160    -1.4710     1.0050 hc         1 7E8       0.073700
     31 H61C         1.6710     0.8270     0.2550 hc         1 7E8       0.054200
     32 H62C         0.7710     0.1860    -1.1190 hc         1 7E8       0.054200
     33 H51C        -0.8220    -0.9550     0.4570 hc         1 7E8       0.038200
     34 H52C         0.0770    -0.3110     1.8310 hc         1 7E8       0.038200
     35 H41C        -0.4570     2.0290     1.0830 hc         1 7E8       0.042200
     36 H42C        -1.3550     1.3840    -0.2910 hc         1 7E8       0.042200
     37 H31C        -2.9300     0.2290     1.2960 hc         1 7E8       0.044700
     38 H32C        -2.0530     0.8970     2.6570 hc         1 7E8       0.044700
     39 H2          -2.8330     3.1420     2.2390 ha         1 7E8       0.165000
     40 H1          -4.7410     3.5540     0.8070 ha         1 7E8       0.166000
     41 H91C        -5.1340     2.2120    -1.1590 hc         1 7E8       0.043200
     42 H92C        -4.0490     0.9420    -0.6350 hc         1 7E8       0.043200
     43 H101        -5.6780     0.2870     1.1680 hc         1 7E8       0.039700
     44 H102        -6.7810     1.5480     0.6170 hc         1 7E8       0.039700
     45 H111        -6.9420     0.4250    -1.6270 hc         1 7E8       0.036700
     46 H112        -5.8380    -0.8350    -1.0750 hc         1 7E8       0.036700
     47 H121        -7.4810    -1.4950     0.7080 hc         1 7E8       0.037700
     48 H122        -8.5860    -0.2360     0.1560 hc         1 7E8       0.037700
     49 H131        -8.7480    -1.3610    -2.0870 hc         1 7E8       0.036700
     50 H132        -7.6430    -2.6200    -1.5360 hc         1 7E8       0.036700
     51 H141        -9.3000    -3.3130     0.2290 hc         1 7E8       0.031367
     52 H142       -10.4150    -2.0430    -0.3280 hc         1 7E8       0.031367
     53 H143       -10.0050    -3.3990    -1.4000 hc         1 7E8       0.031367
@<TRIPOS>BOND
     1     1     2 1   
     2     1    22 1   
     3     2    21 1   
     4     2    23 1   
     5     2    24 1   
     6     3    21 1   
     7     3    26 1   
     8     4     5 1   
     9     4    21 1   
    10     4    27 1   
    11     4    28 1   
    12     5     6 1   
    13     6     7 2   
    14     6     8 1   
    15     8     9 1   
    16     8    29 1   
    17     8    30 1   
    18     9    10 1   
    19     9    31 1   
    20     9    32 1   
    21    10    11 1   
    22    10    33 1   
    23    10    34 1   
    24    11    12 1   
    25    11    35 1   
    26    11    36 1   
    27    12    13 1   
    28    12    37 1   
    29    12    38 1   
    30    13    14 2   
    31    13    39 1   
    32    14    15 1   
    33    14    40 1   
    34    15    16 1   
    35    15    41 1   
    36    15    42 1   
    37    16    17 1   
    38    16    43 1   
    39    16    44 1   
    40    17    18 1   
    41    17    45 1   
    42    17    46 1   
    43    18    19 1   
    44    18    47 1   
    45    18    48 1   
    46    19    20 1   
    47    19    49 1   
    48    19    50 1   
    49    20    51 1   
    50    20    52 1   
    51    20    53 1   
    52    21    25 1   
@<TRIPOS>SUBSTRUCTURE
     1 7E8         1 TEMP              0 ****  ****    0 ROOT
