@<TRIPOS>MOLECULE
7E9
   53    52     1     0     0
SMALL
No Charge or Current Charge


@<TRIPOS>ATOM
      1 O21          5.2260     1.5590    -0.7970 oh         1 7E9      -0.627000
      2 C20          5.8540     0.4240    -1.4250 c3         1 7E9       0.158100
      3 O19          3.5010    -1.6090    -1.8420 o          1 7E9      -0.503000
      4 C17          6.9620    -0.8870     0.5610 c3         1 7E9       0.158100
      5 O2           6.7750     0.1050     1.5890 oh         1 7E9      -0.627000
      6 O1           4.5590    -1.0350     0.1180 os         1 7E9      -0.424100
      7 C14         -9.3560    -2.5140    -0.6500 c3         1 7E9      -0.088100
      8 C13         -8.1280    -1.7690    -1.2060 c3         1 7E9      -0.075400
      9 C12         -7.5150    -0.7750    -0.1960 c3         1 7E9      -0.075400
     10 C11         -6.2840    -0.0280    -0.7540 c3         1 7E9      -0.075400
     11 C10         -5.6700     0.9650     0.2570 c3         1 7E9      -0.072400
     12 C80          3.4660    -1.3520    -0.6460 c          1 7E9       0.595100
     13 C9          -4.4380     1.7100    -0.2970 c3         1 7E9      -0.044200
     14 C15          5.8470    -0.8630    -0.5300 c3         1 7E9       0.179300
     15 C8          -3.8480     2.6720     0.7180 c2         1 7E9      -0.214200
     16 C7          -2.8120     2.4370     1.5430 c2         1 7E9      -0.216200
     17 C6          -2.0260     1.1450     1.6700 c3         1 7E9      -0.044200
     18 C5          -0.7310     1.1680     0.8320 c3         1 7E9      -0.071400
     19 C4           0.0820    -0.1400     0.9360 c3         1 7E9      -0.077400
     20 C3           1.3760    -0.1160     0.0930 c3         1 7E9      -0.067400
     21 C2           2.1900    -1.4270     0.1950 c3         1 7E9      -0.138400
     22 H21          5.3250     2.3190    -1.4110 ho         1 7E9       0.437000
     23 H201         5.3410     0.1980    -2.3690 h1         1 7E9       0.024700
     24 H202         6.8930     0.6650    -1.6840 h1         1 7E9       0.024700
     25 H15          6.0500    -1.7180    -1.1890 h1         1 7E9       0.062700
     26 H171         7.9340    -0.7410     0.0720 h1         1 7E9       0.024700
     27 H172         6.9780    -1.8880     1.0130 h1         1 7E9       0.024700
     28 H2           7.4970    -0.0200     2.2430 ho         1 7E9       0.437000
     29 H21C         1.5740    -2.2610    -0.1590 hc         1 7E9       0.073700
     30 H22C         2.4600    -1.5660     1.2490 hc         1 7E9       0.073700
     31 H31C         1.1200     0.0680    -0.9580 hc         1 7E9       0.053200
     32 H32C         2.0040     0.7240     0.4200 hc         1 7E9       0.053200
     33 H41C         0.3390    -0.3220     1.9870 hc         1 7E9       0.037700
     34 H42C        -0.5440    -0.9800     0.6090 hc         1 7E9       0.037700
     35 H51C        -0.9900     1.3500    -0.2190 hc         1 7E9       0.041700
     36 H52C        -0.1080     2.0100     1.1580 hc         1 7E9       0.041700
     37 H61C        -1.7730     0.9710     2.7240 hc         1 7E9       0.043700
     38 H62C        -2.6360     0.2880     1.3610 hc         1 7E9       0.043700
     39 H7          -2.4760     3.2240     2.2220 ha         1 7E9       0.165000
     40 H8          -4.3370     3.6480     0.7330 ha         1 7E9       0.165000
     41 H91         -3.6890     0.9750    -0.6150 hc         1 7E9       0.043700
     42 H92         -4.7230     2.2600    -1.2020 hc         1 7E9       0.043700
     43 HA1         -6.4310     1.6990     0.5510 hc         1 7E9       0.039700
     44 HB2         -5.3800     0.4230     1.1650 hc         1 7E9       0.039700
     45 HB1         -5.5210    -0.7600    -1.0470 hc         1 7E9       0.036700
     46 HC2         -6.5730     0.5150    -1.6630 hc         1 7E9       0.036700
     47 HC1         -8.2780    -0.0430     0.0970 hc         1 7E9       0.037700
     48 HD2         -7.2260    -1.3170     0.7130 hc         1 7E9       0.037700
     49 HD1         -7.3680    -2.5040    -1.5000 hc         1 7E9       0.036200
     50 HE2         -8.4210    -1.2300    -2.1160 hc         1 7E9       0.036200
     51 HE1         -9.7560    -3.2070    -1.4010 hc         1 7E9       0.031367
     52 HF2         -9.0880    -3.0930     0.2420 hc         1 7E9       0.031367
     53 HG3        -10.1500    -1.8070    -0.3790 hc         1 7E9       0.031367
@<TRIPOS>BOND
     1     1     2 1   
     2     1    22 1   
     3     2    14 1   
     4     2    23 1   
     5     2    24 1   
     6     3    12 2   
     7     4     5 1   
     8     4    14 1   
     9     4    26 1   
    10     4    27 1   
    11     5    28 1   
    12     6    12 1   
    13     6    14 1   
    14     7     8 1   
    15     7    51 1   
    16     7    52 1   
    17     7    53 1   
    18     8     9 1   
    19     8    49 1   
    20     8    50 1   
    21     9    10 1   
    22     9    47 1   
    23     9    48 1   
    24    10    11 1   
    25    10    45 1   
    26    10    46 1   
    27    11    13 1   
    28    11    43 1   
    29    11    44 1   
    30    12    21 1   
    31    13    15 1   
    32    13    41 1   
    33    13    42 1   
    34    14    25 1   
    35    15    16 2   
    36    15    40 1   
    37    16    17 1   
    38    16    39 1   
    39    17    18 1   
    40    17    37 1   
    41    17    38 1   
    42    18    19 1   
    43    18    35 1   
    44    18    36 1   
    45    19    20 1   
    46    19    33 1   
    47    19    34 1   
    48    20    21 1   
    49    20    31 1   
    50    20    32 1   
    51    21    29 1   
    52    21    30 1   
@<TRIPOS>SUBSTRUCTURE
     1 7E9         1 TEMP              0 ****  ****    0 ROOT
