@<TRIPOS>MOLECULE
7E9
   53    52     1     0     0
SMALL
abcg2


@<TRIPOS>ATOM
      1 O21          6.9240     0.2780     1.4720 oh         1 7E9      -0.627000
      2 C20          7.0080     0.4040     0.0760 c3         1 7E9       0.158100
      3 O19          4.1850     1.0650    -1.3130 o          1 7E9      -0.503000
      4 C17          6.7100    -2.0680    -0.5590 c3         1 7E9       0.158100
      5 O2           6.7850    -2.5350     0.7620 oh         1 7E9      -0.627000
      6 O1           4.8360    -0.6870    -0.0860 os         1 7E9      -0.424100
      7 C14         -9.6890    -2.9240     0.3210 c3         1 7E9      -0.088100
      8 C13         -8.4810    -2.3770    -0.4280 c3         1 7E9      -0.075400
      9 C12         -7.9020    -1.1180     0.2060 c3         1 7E9      -0.075400
     10 C11         -6.6890    -0.5750    -0.5400 c3         1 7E9      -0.075400
     11 C10         -6.0980     0.6790     0.0910 c3         1 7E9      -0.072400
     12 C80          3.9470     0.2090    -0.4980 c          1 7E9       0.595100
     13 C9          -4.8680     1.1920    -0.6620 c3         1 7E9      -0.044200
     14 C15          6.1680    -0.6550    -0.6190 c3         1 7E9       0.179300
     15 C8          -4.3200     2.4560    -0.0770 c2         1 7E9      -0.214200
     16 C7          -3.1720     2.6110     0.5810 c2         1 7E9      -0.216200
     17 C6          -2.1440     1.5640     0.8770 c3         1 7E9      -0.044200
     18 C5          -0.8190     1.8220     0.1570 c3         1 7E9      -0.071400
     19 C4           0.2480     0.7960     0.5130 c3         1 7E9      -0.077400
     20 C3           1.5720     1.0430    -0.1980 c3         1 7E9      -0.067400
     21 C2           2.6170     0.0050     0.1770 c3         1 7E9      -0.138400
     22 H21          7.2960     1.0750     1.8590 ho         1 7E9       0.437000
     23 H201         6.6670     1.3910    -0.2560 h1         1 7E9       0.024700
     24 H202         8.0370     0.2920    -0.2930 h1         1 7E9       0.024700
     25 H15          6.1420    -0.3890    -1.6800 h1         1 7E9       0.062700
     26 H171         7.6920    -2.0480    -1.0490 h1         1 7E9       0.024700
     27 H172         6.0650    -2.7040    -1.1800 h1         1 7E9       0.024700
     28 H2           7.0750    -3.4510     0.7290 ho         1 7E9       0.437000
     29 H21C         2.2630    -1.0010    -0.0730 hc         1 7E9       0.073700
     30 H22C         2.7800    -0.0050     1.2590 hc         1 7E9       0.073700
     31 H31C         1.4120     1.0340    -1.2800 hc         1 7E9       0.053200
     32 H32C         1.9380     2.0430     0.0520 hc         1 7E9       0.053200
     33 H41C         0.4090     0.8030     1.5970 hc         1 7E9       0.037700
     34 H42C        -0.1170    -0.2070     0.2670 hc         1 7E9       0.037700
     35 H51C        -0.9910     1.8160    -0.9240 hc         1 7E9       0.041700
     36 H52C        -0.4590     2.8260     0.4040 hc         1 7E9       0.041700
     37 H61C        -1.9560     1.5510     1.9560 hc         1 7E9       0.043700
     38 H62C        -2.5090     0.5680     0.6190 hc         1 7E9       0.043700
     39 H7          -2.9280     3.6080     0.9410 ha         1 7E9       0.165000
     40 H8          -4.9540     3.3310    -0.1960 ha         1 7E9       0.165000
     41 H91         -4.1100     0.4060    -0.6880 hc         1 7E9       0.043700
     42 H92         -5.1500     1.3790    -1.7040 hc         1 7E9       0.043700
     43 HA1         -6.8590     1.4660     0.1300 hc         1 7E9       0.039700
     44 HB2         -5.8190     0.4720     1.1300 hc         1 7E9       0.039700
     45 HB1         -5.9180    -1.3520    -0.5880 hc         1 7E9       0.036700
     46 HC2         -6.9680    -0.3600    -1.5770 hc         1 7E9       0.036700
     47 HC1         -8.6780    -0.3450     0.2520 hc         1 7E9       0.037700
     48 HD2         -7.6250    -1.3300     1.2450 hc         1 7E9       0.037700
     49 HD1         -7.7030    -3.1460    -0.4760 hc         1 7E9       0.036200
     50 HE2         -8.7600    -2.1640    -1.4640 hc         1 7E9       0.036200
     51 HE1        -10.0820    -3.8210    -0.1580 hc         1 7E9       0.031367
     52 HF2         -9.4320    -3.1840     1.3490 hc         1 7E9       0.031367
     53 HG3        -10.4960    -2.1900     0.3600 hc         1 7E9       0.031367
@<TRIPOS>BOND
     1     1     2 1   
     2     1    22 1   
     3     2    14 1   
     4     2    23 1   
     5     2    24 1   
     6     3    12 2   
     7     4     5 1   
     8     4    14 1   
     9     4    26 1   
    10     4    27 1   
    11     5    28 1   
    12     6    12 1   
    13     6    14 1   
    14     7     8 1   
    15     7    51 1   
    16     7    52 1   
    17     7    53 1   
    18     8     9 1   
    19     8    49 1   
    20     8    50 1   
    21     9    10 1   
    22     9    47 1   
    23     9    48 1   
    24    10    11 1   
    25    10    45 1   
    26    10    46 1   
    27    11    13 1   
    28    11    43 1   
    29    11    44 1   
    30    12    21 1   
    31    13    15 1   
    32    13    41 1   
    33    13    42 1   
    34    14    25 1   
    35    15    16 2   
    36    15    40 1   
    37    16    17 1   
    38    16    39 1   
    39    17    18 1   
    40    17    37 1   
    41    17    38 1   
    42    18    19 1   
    43    18    35 1   
    44    18    36 1   
    45    19    20 1   
    46    19    33 1   
    47    19    34 1   
    48    20    21 1   
    49    20    31 1   
    50    20    32 1   
    51    21    29 1   
    52    21    30 1   
@<TRIPOS>SUBSTRUCTURE
     1 7E9         1 TEMP              0 ****  ****    0 ROOT
