@<TRIPOS>MOLECULE
7EA
   34    36     1     0     0
SMALL
No Charge or Current Charge


@<TRIPOS>ATOM
      1 N3           1.5830     0.2840    -0.2040 nc         1 7EA      -0.470800
      2 C4           1.4150    -2.0330     0.6670 cd         1 7EA      -0.149000
      3 C5          -1.2140     0.6520     0.3500 ca         1 7EA      -0.135000
      4 C6          -1.4410    -1.6920    -0.2510 ca         1 7EA      -0.077000
      5 C8           2.7800    -2.1760     0.7250 cc         1 7EA      -0.023000
      6 C10         -2.8330    -1.5340    -0.3550 ca         1 7EA      -0.185000
      7 C13         -3.4300    -0.2800    -0.1010 ca         1 7EA       0.137100
      8 C20         -5.7040    -1.1520    -0.5460 c3         1 7EA       0.143900
      9 C1           0.8560    -0.7810     0.1860 cd         1 7EA       0.398500
     10 C11          3.5570    -1.0690     0.3070 cc         1 7EA      -0.152000
     11 C12          3.9200     0.9770    -0.4560 cc         1 7EA       0.364800
     12 C2          -0.6150    -0.6100     0.1210 ca         1 7EA      -0.162500
     13 C9          -2.6150     0.8220     0.2490 ca         1 7EA       0.106100
     14 N15          4.8640    -0.8930     0.2460 nd         1 7EA      -0.069000
     15 N16          5.0950     0.3930    -0.2340 nd         1 7EA      -0.369700
     16 N7           2.9500     0.0680    -0.1200 na         1 7EA       0.124000
     17 O14         -3.2220     2.0460     0.4830 os         1 7EA      -0.321100
     18 H1           0.7710    -2.8420     0.9870 ha         1 7EA       0.136000
     19 H2          -0.5800     1.4920     0.6200 ha         1 7EA       0.138000
     20 H3          -1.0080    -2.6640    -0.4760 ha         1 7EA       0.115000
     21 H4           3.2560    -3.0880     1.0760 ha         1 7EA       0.151000
     22 H5          -3.4290    -2.3950    -0.6390 ha         1 7EA       0.123000
     23 H6           3.1320     2.9660    -0.2540 hc         1 7EA       0.062033
     24 H7           4.6530     2.8770    -1.1630 hc         1 7EA       0.062033
     25 H8           3.1370     2.3460    -1.9170 hc         1 7EA       0.062033
     26 H9          -5.4730    -1.5480    -1.5430 h1         1 7EA       0.043367
     27 H10         -5.6450    -1.9720     0.1820 h1         1 7EA       0.043367
     28 H11         -6.7370    -0.7820    -0.5580 h1         1 7EA       0.043367
     29 H12         -3.1580     4.0760     0.9750 h1         1 7EA       0.042367
     30 H13         -1.9330     3.0740     1.7800 h1         1 7EA       0.042367
     31 H14         -1.7600     3.4870     0.0520 h1         1 7EA       0.042367
     32 C17          3.7000     2.3700    -0.9770 c3         1 7EA      -0.096400
     33 O18         -4.7990    -0.0900    -0.1950 os         1 7EA      -0.315100
     34 C19         -2.4790     3.2260     0.8390 c3         1 7EA       0.143900
@<TRIPOS>BOND
     1     1     9 2   
     2     1    16 1   
     3     2     5 2   
     4     2     9 1   
     5     2    18 1   
     6     3    12 ar  
     7     3    13 ar  
     8     3    19 1   
     9     4     6 ar  
    10     4    12 ar  
    11     4    20 1   
    12     5    10 1   
    13     5    21 1   
    14     6     7 ar  
    15     6    22 1   
    16     7    13 ar  
    17     7    33 1   
    18     8    26 1   
    19     8    27 1   
    20     8    28 1   
    21     8    33 1   
    22     9    12 1   
    23    10    14 2   
    24    10    16 1   
    25    11    15 2   
    26    11    16 1   
    27    11    32 1   
    28    13    17 1   
    29    14    15 1   
    30    17    34 1   
    31    23    32 1   
    32    24    32 1   
    33    25    32 1   
    34    29    34 1   
    35    30    34 1   
    36    31    34 1   
@<TRIPOS>SUBSTRUCTURE
     1 7EA         1 TEMP              0 ****  ****    0 ROOT
