@<TRIPOS>MOLECULE
7EA
   34    36     1     0     0
SMALL
bcc


@<TRIPOS>ATOM
      1 N3           1.5560     0.2430    -0.0990 nc         1 7EA      -0.470800
      2 C4           1.4410    -2.1280     0.2520 cd         1 7EA      -0.232300
      3 C5          -1.1690     0.6240     0.1010 ca         1 7EA      -0.153000
      4 C6          -1.4780    -1.7440    -0.1340 ca         1 7EA      -0.095000
      5 C8           2.7870    -2.2620     0.3030 cc         1 7EA      -0.041000
      6 C10         -2.8570    -1.5560    -0.1650 ca         1 7EA      -0.203000
      7 C13         -3.3990    -0.2860    -0.0720 ca         1 7EA       0.137100
      8 C20         -5.6270    -1.0730    -0.1790 c3         1 7EA       0.120700
      9 C1           0.8420    -0.8350     0.0430 cd         1 7EA       0.463800
     10 C11          3.5590    -1.0890     0.1410 cc         1 7EA      -0.101300
     11 C12          3.8210     1.0490    -0.1620 cc         1 7EA       0.364800
     12 C2          -0.6200    -0.6650     0.0040 ca         1 7EA      -0.162500
     13 C9          -2.5320     0.8230     0.0650 ca         1 7EA       0.106100
     14 N15          4.8470    -0.8440     0.1380 nd         1 7EA      -0.069000
     15 N16          4.9960     0.4830    -0.0530 nd         1 7EA      -0.369700
     16 N7           2.8740     0.0830    -0.0420 na         1 7EA       0.073300
     17 O14         -3.1380     2.0190     0.1490 os         1 7EA      -0.297900
     18 H1           0.8150    -2.9970     0.3830 ha         1 7EA       0.154000
     19 H2          -0.4980     1.4650     0.2080 ha         1 7EA       0.156000
     20 H3          -1.1090    -2.7560    -0.2220 ha         1 7EA       0.133000
     21 H4           3.2680    -3.2160     0.4610 ha         1 7EA       0.169000
     22 H5          -3.4940    -2.4230    -0.2740 ha         1 7EA       0.141000
     23 H6           2.9890     2.9060     0.4800 hc         1 7EA       0.062033
     24 H7           4.4360     3.0340    -0.5260 hc         1 7EA       0.062033
     25 H8           2.8780     2.6150    -1.2500 hc         1 7EA       0.062033
     26 H9          -5.5190    -1.6240    -1.1170 h1         1 7EA       0.043367
     27 H10         -5.5240    -1.7680     0.6570 h1         1 7EA       0.043367
     28 H11         -6.6180    -0.6290    -0.1440 h1         1 7EA       0.043367
     29 H12         -3.0100     4.0170     0.3600 h1         1 7EA       0.042367
     30 H13         -1.7490     3.1300     1.2340 h1         1 7EA       0.042367
     31 H14         -1.6510     3.3130    -0.5330 h1         1 7EA       0.042367
     32 C17          3.5140     2.4780    -0.3750 c3         1 7EA      -0.096400
     33 O18         -4.7070    -0.0010    -0.0870 os         1 7EA      -0.291900
     34 C19         -2.3320     3.1690     0.3100 c3         1 7EA       0.120700
@<TRIPOS>BOND
     1     1     9 2   
     2     1    16 1   
     3     2     5 2   
     4     2     9 1   
     5     2    18 1   
     6     3    12 ar  
     7     3    13 ar  
     8     3    19 1   
     9     4     6 ar  
    10     4    12 ar  
    11     4    20 1   
    12     5    10 1   
    13     5    21 1   
    14     6     7 ar  
    15     6    22 1   
    16     7    13 ar  
    17     7    33 1   
    18     8    26 1   
    19     8    27 1   
    20     8    28 1   
    21     8    33 1   
    22     9    12 1   
    23    10    14 2   
    24    10    16 1   
    25    11    15 2   
    26    11    16 1   
    27    11    32 1   
    28    13    17 1   
    29    14    15 1   
    30    17    34 1   
    31    23    32 1   
    32    24    32 1   
    33    25    32 1   
    34    29    34 1   
    35    30    34 1   
    36    31    34 1   
@<TRIPOS>SUBSTRUCTURE
     1 7EA         1 TEMP              0 ****  ****    0 ROOT
