@<TRIPOS>MOLECULE
7EB
   65    69     1     0     0
SMALL
No Charge or Current Charge


@<TRIPOS>ATOM
      1 C01        -12.5880    24.8080   -42.1530 ca         1 7EB       0.141100
      2 C02        -13.2500    23.7710   -41.4780 ca         1 7EB      -0.172000
      3 C03        -14.6380    23.6030   -41.6340 ca         1 7EB      -0.058000
      4 C04        -15.3700    24.4690   -42.4710 ca         1 7EB      -0.074800
      5 C05        -14.6990    25.5150   -43.1360 ca         1 7EB      -0.058000
      6 C06        -13.3110    25.6800   -42.9790 ca         1 7EB      -0.172000
      7 C07        -16.8420    24.2990   -42.6300 ce         1 7EB      -0.068400
      8 C08        -17.6450    24.4750   -43.7250 cf         1 7EB      -0.064400
      9 C09        -19.0670    24.1830   -43.1950 c5         1 7EB       0.213500
     10 C10        -17.3430    24.7450   -45.1460 ca         1 7EB      -0.089800
     11 C11        -16.1510    24.2650   -45.7250 ca         1 7EB      -0.054000
     12 C12        -15.8620    24.5100   -47.0790 ca         1 7EB      -0.172000
     13 C13        -16.7710    25.2380   -47.8750 ca         1 7EB       0.157100
     14 C14        -17.9630    25.7080   -47.3040 ca         1 7EB      -0.172000
     15 C15        -18.2520    25.4620   -45.9500 ca         1 7EB      -0.054000
     16 C16        -17.7830    23.9160   -41.4760 c5         1 7EB       0.182500
     17 C17        -19.1090    22.6360   -43.0410 c5         1 7EB      -0.355700
     18 C18        -18.1860    22.4310   -41.7710 c5         1 7EB      -0.060400
     19 O01        -18.9710    24.6140   -41.8420 os         1 7EB      -0.438000
     20 O02        -16.5430    25.5100   -49.2080 os         1 7EB      -0.356100
     21 C19        -15.3500    25.0710   -49.8870 c3         1 7EB       0.162600
     22 C20        -15.4270    25.5570   -51.3560 c3         1 7EB       0.155800
     23 N01        -14.2170    25.2880   -52.1870 n3         1 7EB      -0.716600
     24 C21        -13.9000    23.8460   -52.3290 c3         1 7EB       0.147600
     25 C22        -14.2780    25.9710   -53.4990 c3         1 7EB       0.147600
     26 O03        -11.2440    24.9780   -42.0070 oh         1 7EB      -0.534100
     27 S01        -20.8790    22.1110   -42.7260 s6         1 7EB       1.350700
     28 O04        -21.2190    22.8330   -41.2820 os         1 7EB      -0.462800
     29 C23        -22.4010    23.5120   -41.1440 ca         1 7EB       0.144100
     30 C24        -22.3770    24.9070   -40.9840 ca         1 7EB      -0.111000
     31 C25        -23.5800    25.6180   -40.8240 ca         1 7EB      -0.069000
     32 C26        -24.8040    24.9270   -40.8150 ca         1 7EB      -0.012900
     33 C27        -24.8300    23.5290   -40.9570 ca         1 7EB      -0.069000
     34 C28        -23.6260    22.8180   -41.1180 ca         1 7EB      -0.111000
     35 Br         -26.4410    25.8930   -40.5960 br         1 7EB      -0.098100
     36 O05        -21.7480    22.6920   -43.7590 o          1 7EB      -0.533000
     37 O06        -20.9040    20.6590   -42.5050 o          1 7EB      -0.533000
     38 H1         -12.6990    23.0910   -40.8330 ha         1 7EB       0.124500
     39 H2         -15.1410    22.7950   -41.1080 ha         1 7EB       0.119500
     40 H3         -15.2530    26.2030   -43.7700 ha         1 7EB       0.119500
     41 H4         -12.8000    26.4880   -43.4970 ha         1 7EB       0.124500
     42 H5         -19.8970    24.6590   -43.7390 h1         1 7EB       0.112700
     43 H6         -15.4490    23.6870   -45.1290 ha         1 7EB       0.118500
     44 H7         -14.9330    24.1260   -47.4890 ha         1 7EB       0.127000
     45 H8         -18.6660    26.2680   -47.9140 ha         1 7EB       0.127000
     46 H9         -19.1770    25.8470   -45.5290 ha         1 7EB       0.118500
     47 H10        -17.4370    24.1470   -40.4580 h1         1 7EB       0.104700
     48 H11        -18.7740    22.1020   -43.9360 h1         1 7EB       0.116700
     49 H12        -18.7070    21.9830   -40.9160 hc         1 7EB       0.072700
     50 H13        -17.3150    21.7990   -41.9830 hc         1 7EB       0.072700
     51 H14        -15.2760    23.9770   -49.8610 h1         1 7EB       0.044700
     52 H15        -14.4570    25.4970   -49.4130 h1         1 7EB       0.044700
     53 H16        -15.6110    26.6400   -51.3290 h1         1 7EB       0.047200
     54 H17        -16.3090    25.0970   -51.8240 h1         1 7EB       0.047200
     55 H19        -13.7120    23.3820   -51.3520 h1         1 7EB       0.033700
     56 H20        -14.7260    23.3090   -52.8140 h1         1 7EB       0.033700
     57 H21        -12.9970    23.7070   -52.9380 h1         1 7EB       0.033700
     58 H22        -14.4280    27.0520   -53.3680 h1         1 7EB       0.033700
     59 H23        -13.3430    25.8270   -54.0560 h1         1 7EB       0.033700
     60 H24        -15.1060    25.5800   -54.1070 h1         1 7EB       0.033700
     61 H25        -10.9080    24.2860   -41.3980 ho         1 7EB       0.464000
     62 H26        -21.4270    25.4360   -40.9860 ha         1 7EB       0.144000
     63 H27        -23.5620    26.6990   -40.7060 ha         1 7EB       0.137500
     64 H28        -25.7790    22.9970   -40.9410 ha         1 7EB       0.137500
     65 H29        -23.6470    21.7360   -41.2160 ha         1 7EB       0.144000
@<TRIPOS>BOND
     1     1     2 ar  
     2     1     6 ar  
     3     1    26 1   
     4     2     3 ar  
     5     2    38 1   
     6     3     4 ar  
     7     3    39 1   
     8     4     5 ar  
     9     4     7 1   
    10     5     6 ar  
    11     5    40 1   
    12     6    41 1   
    13     7     8 2   
    14     7    16 1   
    15     8     9 1   
    16     8    10 1   
    17     9    17 1   
    18     9    19 1   
    19     9    42 1   
    20    10    11 ar  
    21    10    15 ar  
    22    11    12 ar  
    23    11    43 1   
    24    12    13 ar  
    25    12    44 1   
    26    13    14 ar  
    27    13    20 1   
    28    14    15 ar  
    29    14    45 1   
    30    15    46 1   
    31    16    18 1   
    32    16    19 1   
    33    16    47 1   
    34    17    18 1   
    35    17    27 1   
    36    17    48 1   
    37    18    49 1   
    38    18    50 1   
    39    20    21 1   
    40    21    22 1   
    41    21    51 1   
    42    21    52 1   
    43    22    23 1   
    44    22    53 1   
    45    22    54 1   
    46    23    24 1   
    47    23    25 1   
    48    24    55 1   
    49    24    56 1   
    50    24    57 1   
    51    25    58 1   
    52    25    59 1   
    53    25    60 1   
    54    26    61 1   
    55    27    28 1   
    56    27    36 2   
    57    27    37 2   
    58    28    29 1   
    59    29    30 ar  
    60    29    34 ar  
    61    30    31 ar  
    62    30    62 1   
    63    31    32 ar  
    64    31    63 1   
    65    32    33 ar  
    66    32    35 1   
    67    33    34 ar  
    68    33    64 1   
    69    34    65 1   
@<TRIPOS>SUBSTRUCTURE
     1 7EB         1 TEMP              0 ****  ****    0 ROOT
