@<TRIPOS>MOLECULE
7EB
   65    69     1     0     0
SMALL
abcg2


@<TRIPOS>ATOM
      1 C01        -12.5330    24.8560   -42.0440 ca         1 7EB       0.141100
      2 C02        -13.2250    23.9370   -41.2600 ca         1 7EB      -0.172000
      3 C03        -14.5980    23.7950   -41.4110 ca         1 7EB      -0.058000
      4 C04        -15.3110    24.5480   -42.3530 ca         1 7EB      -0.074800
      5 C05        -14.5930    25.4810   -43.1180 ca         1 7EB      -0.058000
      6 C06        -13.2270    25.6370   -42.9700 ca         1 7EB      -0.172000
      7 C07        -16.7530    24.3860   -42.4960 ce         1 7EB      -0.068400
      8 C08        -17.5790    24.5530   -43.5510 cf         1 7EB      -0.064400
      9 C09        -18.9650    24.1930   -43.0200 c5         1 7EB       0.213500
     10 C10        -17.3330    24.7940   -44.9710 ca         1 7EB      -0.089800
     11 C11        -16.2380    24.2320   -45.6330 ca         1 7EB      -0.054000
     12 C12        -16.0080    24.4550   -46.9840 ca         1 7EB      -0.172000
     13 C13        -16.8920    25.2550   -47.7120 ca         1 7EB       0.157100
     14 C14        -18.0050    25.8090   -47.0720 ca         1 7EB      -0.172000
     15 C15        -18.2220    25.5730   -45.7270 ca         1 7EB      -0.054000
     16 C16        -17.6510    23.8860   -41.3660 c5         1 7EB       0.182500
     17 C17        -18.9370    22.6330   -42.9260 c5         1 7EB      -0.355700
     18 C18        -18.0530    22.4170   -41.6750 c5         1 7EB      -0.060400
     19 O01        -18.8870    24.5710   -41.6440 os         1 7EB      -0.438000
     20 O02        -16.7550    25.5430   -49.0310 os         1 7EB      -0.356100
     21 C19        -15.6200    25.0260   -49.7330 c3         1 7EB       0.162600
     22 C20        -15.7340    25.5310   -51.1610 c3         1 7EB       0.155800
     23 N01        -14.5680    25.1880   -51.9650 n3         1 7EB      -0.716600
     24 C21        -14.4980    23.7600   -52.2570 c3         1 7EB       0.147600
     25 C22        -14.5530    25.9620   -53.2010 c3         1 7EB       0.147600
     26 O03        -11.1850    25.0410   -41.9440 oh         1 7EB      -0.534100
     27 S01        -20.5440    21.8580   -42.8370 s6         1 7EB       1.350700
     28 O04        -21.2090    22.4840   -41.5030 os         1 7EB      -0.462800
     29 C23        -22.2940    23.3720   -41.5700 ca         1 7EB       0.144100
     30 C24        -22.0750    24.7110   -41.2940 ca         1 7EB      -0.111000
     31 C25        -23.1560    25.5850   -41.2880 ca         1 7EB      -0.069000
     32 C26        -24.4250    25.0930   -41.5620 ca         1 7EB      -0.012900
     33 C27        -24.6420    23.7490   -41.8340 ca         1 7EB      -0.069000
     34 C28        -23.5610    22.8770   -41.8340 ca         1 7EB      -0.111000
     35 BR         -25.9130    26.2980   -41.5580 br         1 7EB      -0.098100
     36 O05        -21.3280    22.2500   -43.9770 o          1 7EB      -0.533000
     37 O06        -20.3660    20.4610   -42.5480 o          1 7EB      -0.533000
     38 H1         -12.6900    23.3370   -40.5330 ha         1 7EB       0.124500
     39 H2         -15.1150    23.0730   -40.7920 ha         1 7EB       0.119500
     40 H3         -15.1170    26.1010   -43.8320 ha         1 7EB       0.119500
     41 H4         -12.6860    26.3640   -43.5610 ha         1 7EB       0.124500
     42 H5         -19.8270    24.6280   -43.5130 h1         1 7EB       0.112700
     43 H6         -15.5500    23.6040   -45.0830 ha         1 7EB       0.118500
     44 H7         -15.1510    24.0000   -47.4570 ha         1 7EB       0.127000
     45 H8         -18.6880    26.4210   -47.6460 ha         1 7EB       0.127000
     46 H9         -19.0870    26.0160   -45.2500 ha         1 7EB       0.118500
     47 H10        -17.3240    24.0770   -40.3490 h1         1 7EB       0.104700
     48 H11        -18.5300    22.1830   -43.8320 h1         1 7EB       0.116700
     49 H12        -18.6200    22.0040   -40.8430 hc         1 7EB       0.072700
     50 H13        -17.2030    21.7720   -41.8780 hc         1 7EB       0.072700
     51 H14        -15.6290    23.9350   -49.6830 h1         1 7EB       0.044700
     52 H15        -14.6970    25.3910   -49.2760 h1         1 7EB       0.044700
     53 H16        -15.8140    26.6190   -51.1250 h1         1 7EB       0.047200
     54 H17        -16.6660    25.1480   -51.6100 h1         1 7EB       0.047200
     55 H19        -14.4140    23.1800   -51.3390 h1         1 7EB       0.033700
     56 H20        -15.3840    23.4050   -52.8100 h1         1 7EB       0.033700
     57 H21        -13.6140    23.5580   -52.8640 h1         1 7EB       0.033700
     58 H22        -14.5530    27.0280   -52.9710 h1         1 7EB       0.033700
     59 H23        -13.6520    25.7280   -53.7690 h1         1 7EB       0.033700
     60 H24        -15.4260    25.7470   -53.8420 h1         1 7EB       0.033700
     61 H25        -10.8190    24.4480   -41.2740 ho         1 7EB       0.464000
     62 H26        -21.0740    25.0610   -41.0870 ha         1 7EB       0.144000
     63 H27        -23.0040    26.6340   -41.0750 ha         1 7EB       0.137500
     64 H28        -25.6370    23.3800   -42.0410 ha         1 7EB       0.137500
     65 H29        -23.7020    21.8240   -42.0350 ha         1 7EB       0.144000
@<TRIPOS>BOND
     1     1     2 ar  
     2     1     6 ar  
     3     1    26 1   
     4     2     3 ar  
     5     2    38 1   
     6     3     4 ar  
     7     3    39 1   
     8     4     5 ar  
     9     4     7 1   
    10     5     6 ar  
    11     5    40 1   
    12     6    41 1   
    13     7     8 2   
    14     7    16 1   
    15     8     9 1   
    16     8    10 1   
    17     9    17 1   
    18     9    19 1   
    19     9    42 1   
    20    10    11 ar  
    21    10    15 ar  
    22    11    12 ar  
    23    11    43 1   
    24    12    13 ar  
    25    12    44 1   
    26    13    14 ar  
    27    13    20 1   
    28    14    15 ar  
    29    14    45 1   
    30    15    46 1   
    31    16    18 1   
    32    16    19 1   
    33    16    47 1   
    34    17    18 1   
    35    17    27 1   
    36    17    48 1   
    37    18    49 1   
    38    18    50 1   
    39    20    21 1   
    40    21    22 1   
    41    21    51 1   
    42    21    52 1   
    43    22    23 1   
    44    22    53 1   
    45    22    54 1   
    46    23    24 1   
    47    23    25 1   
    48    24    55 1   
    49    24    56 1   
    50    24    57 1   
    51    25    58 1   
    52    25    59 1   
    53    25    60 1   
    54    26    61 1   
    55    27    28 1   
    56    27    36 2   
    57    27    37 2   
    58    28    29 1   
    59    29    30 ar  
    60    29    34 ar  
    61    30    31 ar  
    62    30    62 1   
    63    31    32 ar  
    64    31    63 1   
    65    32    33 ar  
    66    32    35 1   
    67    33    34 ar  
    68    33    64 1   
    69    34    65 1   
@<TRIPOS>SUBSTRUCTURE
     1 7EB         1 TEMP              0 ****  ****    0 ROOT
