@<TRIPOS>MOLECULE
7ED
  100   103     1     0     0
SMALL
bcc


@<TRIPOS>ATOM
      1 C01         11.6420    -0.0170    -0.4560 c3         1 7ED      -0.088100
      2 C02         10.2310     0.3880    -0.8540 c3         1 7ED      -0.070400
      3 C03          9.1670    -0.0560     0.1570 c3         1 7ED       0.006100
      4 C37          9.1590    -1.5560     0.3290 ca         1 7ED      -0.120300
      5 C38          9.5290    -2.1420     1.5330 ca         1 7ED      -0.077500
      6 C39          9.5530    -3.5200     1.6980 ca         1 7ED      -0.194000
      7 C40          9.1960    -4.3520     0.6420 ca         1 7ED       0.138100
      8 O8           9.1990    -5.6990     0.7390 oh         1 7ED      -0.496100
      9 C41          8.8180    -3.7850    -0.5720 ca         1 7ED      -0.194000
     10 C42          8.8050    -2.4070    -0.7180 ca         1 7ED      -0.077500
     11 C04          7.7780     0.4580    -0.2660 c3         1 7ED      -0.059900
     12 C05          6.6960     0.0040     0.6920 c          1 7ED       0.654600
     13 O5           5.5400    -0.1430     0.0630 os         1 7ED      -0.425400
     14 C06          4.3580    -0.4670     0.8110 c3         1 7ED       0.142900
     15 C07          3.1650     0.0740     0.0530 c3         1 7ED      -0.084900
     16 C08          1.8460    -0.3660     0.6780 c3         1 7ED      -0.074400
     17 C09          0.6430     0.2560    -0.0180 c3         1 7ED      -0.074400
     18 O6           6.8500    -0.1580     1.8760 o          1 7ED      -0.538500
     19 C31          7.6960     1.9660    -0.3660 ca         1 7ED      -0.125300
     20 C36          7.3260     2.5760    -1.5600 ca         1 7ED      -0.075250
     21 C35          7.2450     3.9540    -1.6760 ca         1 7ED      -0.195500
     22 C34          7.5360     4.7600    -0.5780 ca         1 7ED       0.144100
     23 O7           7.4470     6.0960    -0.7330 oh         1 7ED      -0.493100
     24 C33          7.9020     4.1650     0.6270 ca         1 7ED      -0.195500
     25 C32          7.9760     2.7840     0.7250 ca         1 7ED      -0.075250
     26 H1          12.3710     0.3630    -1.1730 hc         1 7ED       0.034700
     27 H2          11.9030     0.3870     0.5240 hc         1 7ED       0.034700
     28 H3          11.7570    -1.1000    -0.4090 hc         1 7ED       0.034700
     29 H4          10.1850     1.4740    -0.9590 hc         1 7ED       0.042950
     30 H5           9.9890    -0.0210    -1.8410 hc         1 7ED       0.042950
     31 H6           9.4210     0.3880     1.1250 hc         1 7ED       0.067200
     32 H7           9.8080    -1.5110     2.3690 ha         1 7ED       0.131500
     33 H8           9.8510    -3.9420     2.6510 ha         1 7ED       0.138000
     34 H9           9.4880    -5.9700     1.6170 ho         1 7ED       0.424500
     35 H10          8.5370    -4.4230    -1.4010 ha         1 7ED       0.138000
     36 H11          8.5120    -1.9970    -1.6780 ha         1 7ED       0.131500
     37 H12          7.5440     0.0530    -1.2550 hc         1 7ED       0.077700
     38 H13          4.3010    -1.5540     0.9150 h1         1 7ED       0.050450
     39 H14          4.4100    -0.0370     1.8130 h1         1 7ED       0.050450
     40 H15          3.2180     1.1660     0.0310 hc         1 7ED       0.053200
     41 H16          3.2030    -0.2650    -0.9860 hc         1 7ED       0.053200
     42 H17          1.7700    -1.4580     0.6330 hc         1 7ED       0.040700
     43 H18          1.8280    -0.1030     1.7400 hc         1 7ED       0.040700
     44 H19          0.6960     1.3460     0.0760 hc         1 7ED       0.039700
     45 H20          0.6970     0.0440    -1.0920 hc         1 7ED       0.039700
     46 H22          7.0990     1.9630    -2.4240 ha         1 7ED       0.138250
     47 H23          6.9570     4.4070    -2.6160 ha         1 7ED       0.140500
     48 H24          7.6860     6.5450     0.0850 ho         1 7ED       0.426000
     49 H25          8.1280     4.7770     1.4930 ha         1 7ED       0.140500
     50 H26          8.2600     2.3490     1.6760 ha         1 7ED       0.138250
     51 C10         -0.6930    -0.2360     0.5230 c3         1 7ED      -0.074400
     52 C11         -1.8830     0.3970    -0.1880 c3         1 7ED      -0.074400
     53 C12         -3.2230    -0.1100     0.3310 c3         1 7ED      -0.084900
     54 C13         -4.3710     0.4870    -0.4540 c3         1 7ED       0.142900
     55 O1          -5.5980    -0.0180     0.0920 os         1 7ED      -0.425400
     56 C14         -6.7130     0.1590    -0.6000 c          1 7ED       0.654600
     57 O2          -6.7650     0.7540    -1.6470 o          1 7ED      -0.538500
     58 C15         -7.8870    -0.5400     0.0550 c3         1 7ED      -0.059900
     59 C16         -9.2150     0.1650    -0.2770 c3         1 7ED       0.006100
     60 C17        -10.3970    -0.5620     0.3760 c3         1 7ED      -0.070400
     61 C25         -7.8530    -1.9890    -0.3820 ca         1 7ED      -0.125300
     62 C19         -9.1690     1.6190     0.1300 ca         1 7ED      -0.120300
     63 C18        -11.7450     0.0130    -0.0330 c3         1 7ED      -0.088100
     64 C26         -7.6400    -3.0060     0.5390 ca         1 7ED      -0.075250
     65 C27         -7.6190    -4.3390     0.1530 ca         1 7ED      -0.195500
     66 C28         -7.8110    -4.6780    -1.1820 ca         1 7ED       0.144100
     67 C29         -8.0210    -3.6680    -2.1190 ca         1 7ED      -0.195500
     68 C30         -8.0400    -2.3440    -1.7170 ca         1 7ED      -0.075250
     69 C20         -9.3830     2.6330    -0.7940 ca         1 7ED      -0.077500
     70 C21         -9.3660     3.9710    -0.4260 ca         1 7ED      -0.194000
     71 C22         -9.1250     4.3240     0.8980 ca         1 7ED       0.138100
     72 C23         -8.9010     3.3220     1.8390 ca         1 7ED      -0.194000
     73 C24         -8.9260     1.9920     1.4510 ca         1 7ED      -0.077500
     74 O4          -7.8050    -5.9530    -1.6200 oh         1 7ED      -0.493100
     75 O3          -9.0950     5.6060     1.3200 oh         1 7ED      -0.496100
     76 H21         -0.7470    -1.3250     0.4210 hc         1 7ED       0.039700
     77 H27         -0.7550    -0.0280     1.5970 hc         1 7ED       0.039700
     78 H28         -1.8340     1.4850    -0.0790 hc         1 7ED       0.040700
     79 H29         -1.8070     0.1960    -1.2620 hc         1 7ED       0.040700
     80 H30         -3.2590    -1.2000     0.2520 hc         1 7ED       0.053200
     81 H31         -3.3260     0.1370     1.3920 hc         1 7ED       0.053200
     82 H32         -4.3680     1.5790    -0.3860 h1         1 7ED       0.050450
     83 H33         -4.2920     0.2180    -1.5100 h1         1 7ED       0.050450
     84 H34         -7.7370    -0.5150     1.1380 hc         1 7ED       0.077700
     85 H35         -9.3580     0.1240    -1.3620 hc         1 7ED       0.067200
     86 H36        -10.3600    -1.6190     0.1020 hc         1 7ED       0.042950
     87 H37        -10.2920    -0.5290     1.4650 hc         1 7ED       0.042950
     88 H38        -11.8500     1.0560     0.2680 hc         1 7ED       0.034700
     89 H39        -11.8760    -0.0320    -1.1150 hc         1 7ED       0.034700
     90 H40        -12.5610    -0.5470     0.4240 hc         1 7ED       0.034700
     91 H41         -7.4920    -2.7630     1.5850 ha         1 7ED       0.138250
     92 H42         -7.4560    -5.1110     0.8970 ha         1 7ED       0.140500
     93 H43         -8.1700    -3.9240    -3.1610 ha         1 7ED       0.140500
     94 H44         -8.2060    -1.5780    -2.4660 ha         1 7ED       0.138250
     95 H45         -9.5700     2.3800    -1.8310 ha         1 7ED       0.131500
     96 H46         -9.5370     4.7380    -1.1740 ha         1 7ED       0.138000
     97 H47         -8.7100     3.5860     2.8720 ha         1 7ED       0.138000
     98 H48         -8.7540     1.2340     2.2070 ha         1 7ED       0.131500
     99 H49         -7.6500    -6.5600    -0.8870 ho         1 7ED       0.426000
    100 H50         -9.2680     6.2050     0.5850 ho         1 7ED       0.424500
@<TRIPOS>BOND
     1     1     2 1   
     2     1    26 1   
     3     1    27 1   
     4     1    28 1   
     5     2     3 1   
     6     2    29 1   
     7     2    30 1   
     8     3     4 1   
     9     3    11 1   
    10     3    31 1   
    11     4     5 ar  
    12     4    10 ar  
    13     5     6 ar  
    14     5    32 1   
    15     6     7 ar  
    16     6    33 1   
    17     7     8 1   
    18     7     9 ar  
    19     8    34 1   
    20     9    10 ar  
    21     9    35 1   
    22    10    36 1   
    23    11    12 1   
    24    11    19 1   
    25    11    37 1   
    26    12    13 1   
    27    12    18 2   
    28    13    14 1   
    29    14    15 1   
    30    14    38 1   
    31    14    39 1   
    32    15    16 1   
    33    15    40 1   
    34    15    41 1   
    35    16    17 1   
    36    16    42 1   
    37    16    43 1   
    38    17    44 1   
    39    17    45 1   
    40    17    51 1   
    41    19    20 ar  
    42    19    25 ar  
    43    20    21 ar  
    44    20    46 1   
    45    21    22 ar  
    46    21    47 1   
    47    22    23 1   
    48    22    24 ar  
    49    23    48 1   
    50    24    25 ar  
    51    24    49 1   
    52    25    50 1   
    53    51    52 1   
    54    51    76 1   
    55    51    77 1   
    56    52    53 1   
    57    52    78 1   
    58    52    79 1   
    59    53    54 1   
    60    53    80 1   
    61    53    81 1   
    62    54    55 1   
    63    54    82 1   
    64    54    83 1   
    65    55    56 1   
    66    56    57 2   
    67    56    58 1   
    68    58    59 1   
    69    58    61 1   
    70    58    84 1   
    71    59    60 1   
    72    59    62 1   
    73    59    85 1   
    74    60    63 1   
    75    60    86 1   
    76    60    87 1   
    77    61    64 ar  
    78    61    68 ar  
    79    62    69 ar  
    80    62    73 ar  
    81    63    88 1   
    82    63    89 1   
    83    63    90 1   
    84    64    65 ar  
    85    64    91 1   
    86    65    66 ar  
    87    65    92 1   
    88    66    67 ar  
    89    66    74 1   
    90    67    68 ar  
    91    67    93 1   
    92    68    94 1   
    93    69    70 ar  
    94    69    95 1   
    95    70    71 ar  
    96    70    96 1   
    97    71    72 ar  
    98    71    75 1   
    99    72    73 ar  
   100    72    97 1   
   101    73    98 1   
   102    74    99 1   
   103    75   100 1   
@<TRIPOS>SUBSTRUCTURE
     1 7ED         1 TEMP              0 ****  ****    0 ROOT
