@<TRIPOS>MOLECULE
7ED
  100   103     1     0     0
SMALL
No Charge or Current Charge


@<TRIPOS>ATOM
      1 C01         11.0670    -0.7040    -0.6710 c3         1 7ED      -0.088100
      2 C02         10.0430     0.4450    -0.7890 c3         1 7ED      -0.070400
      3 C03          8.8370     0.3170     0.1840 c3         1 7ED       0.006100
      4 C37          8.0940    -1.0130    -0.0060 ca         1 7ED      -0.120300
      5 C38          7.9740    -1.9130     1.0730 ca         1 7ED      -0.059500
      6 C39          7.2800    -3.1250     0.9150 ca         1 7ED      -0.176000
      7 C40          6.7000    -3.4460    -0.3220 ca         1 7ED       0.138100
      8 O8           6.0250    -4.6190    -0.4810 oh         1 7ED      -0.535100
      9 C41          6.8120    -2.5580    -1.3990 ca         1 7ED      -0.176000
     10 C42          7.5060    -1.3450    -1.2460 ca         1 7ED      -0.059500
     11 C04          7.8510     1.5190     0.0670 c3         1 7ED      -0.059900
     12 C05          6.6370     1.3230     1.0010 c          1 7ED       0.605600
     13 O5           5.4760     1.1350     0.2960 os         1 7ED      -0.448600
     14 C06          4.2690     0.8920     1.0350 c3         1 7ED       0.166100
     15 C07          3.1390     0.6680     0.0130 c3         1 7ED      -0.084900
     16 C08          1.7740     0.3820     0.6770 c3         1 7ED      -0.074400
     17 C09          0.6410     0.1540    -0.3480 c3         1 7ED      -0.074400
     18 O6           6.7030     1.3270     2.2250 o          1 7ED      -0.489500
     19 C31          8.5090     2.8880     0.3010 ca         1 7ED      -0.125300
     20 C36          8.4050     3.8920    -0.6840 ca         1 7ED      -0.057250
     21 C35          9.0050     5.1480    -0.4840 ca         1 7ED      -0.177500
     22 C34          9.7100     5.4120     0.6970 ca         1 7ED       0.144100
     23 O7          10.2880     6.6320     0.8800 oh         1 7ED      -0.532100
     24 C33          9.8180     4.4210     1.6850 ca         1 7ED      -0.177500
     25 C32          9.2190     3.1640     1.4890 ca         1 7ED      -0.057250
     26 H1          11.9170    -0.5260    -1.3400 hc         1 7ED       0.034700
     27 H2          11.4480    -0.7790     0.3550 hc         1 7ED       0.034700
     28 H3          10.6160    -1.6650    -0.9450 hc         1 7ED       0.034700
     29 H4          10.5690     1.3880    -0.5940 hc         1 7ED       0.042950
     30 H5           9.6840     0.4990    -1.8240 hc         1 7ED       0.042950
     31 H6           9.2540     0.3350     1.1990 hc         1 7ED       0.067200
     32 H7           8.4160    -1.6740     2.0380 ha         1 7ED       0.113500
     33 H8           7.1970    -3.8070     1.7580 ha         1 7ED       0.120000
     34 H9           6.0520    -5.1100     0.3680 ho         1 7ED       0.463500
     35 H10          6.3610    -2.8060    -2.3570 ha         1 7ED       0.120000
     36 H11          7.5800    -0.6650    -2.0910 ha         1 7ED       0.113500
     37 H12          7.4570     1.4970    -0.9550 hc         1 7ED       0.077700
     38 H13          4.3730    -0.0000     1.6670 h1         1 7ED       0.050450
     39 H14          4.0250     1.7490     1.6770 h1         1 7ED       0.050450
     40 H15          3.0530     1.5560    -0.6250 hc         1 7ED       0.053200
     41 H16          3.4090    -0.1730    -0.6380 hc         1 7ED       0.053200
     42 H17          1.8640    -0.5050     1.3170 hc         1 7ED       0.040700
     43 H18          1.5080     1.2230     1.3290 hc         1 7ED       0.040700
     44 H19          0.5510     1.0410    -0.9880 hc         1 7ED       0.039700
     45 H20          0.9080    -0.6870    -1.0000 hc         1 7ED       0.039700
     46 H22          7.8600     3.7030    -1.6070 ha         1 7ED       0.120250
     47 H23          8.9210     5.9160    -1.2490 ha         1 7ED       0.122500
     48 H24         10.7330     6.6360     1.7540 ho         1 7ED       0.465000
     49 H25         10.3610     4.6170     2.6060 ha         1 7ED       0.122500
     50 H26          9.3060     2.4100     2.2680 ha         1 7ED       0.120250
     51 C10         -0.7240    -0.1320     0.3160 c3         1 7ED      -0.074400
     52 C11         -1.8580    -0.3590    -0.7080 c3         1 7ED      -0.074400
     53 C12         -3.2230    -0.6440    -0.0440 c3         1 7ED      -0.084900
     54 C13         -4.3530    -0.8680    -1.0670 c3         1 7ED       0.166100
     55 O1          -5.5600    -1.1090    -0.3270 os         1 7ED      -0.448600
     56 C14         -6.7210    -1.2970    -1.0330 c          1 7ED       0.605600
     57 O2          -6.7870    -1.3020    -2.2570 o          1 7ED      -0.489500
     58 C15         -7.9360    -1.4890    -0.0990 c3         1 7ED      -0.059900
     59 C16         -8.9200    -0.2860    -0.2190 c3         1 7ED       0.006100
     60 C17        -10.1260    -0.4110     0.7540 c3         1 7ED      -0.070400
     61 C25         -8.5960    -2.8580    -0.3300 ca         1 7ED      -0.125300
     62 C19         -8.1750     1.0430    -0.0310 ca         1 7ED      -0.120300
     63 C18        -11.1490     0.7390     0.6340 c3         1 7ED      -0.088100
     64 C26         -8.4930    -3.8600     0.6560 ca         1 7ED      -0.057250
     65 C27         -9.0940    -5.1160     0.4610 ca         1 7ED      -0.177500
     66 C28         -9.8010    -5.3800    -0.7230 ca         1 7ED       0.144100
     67 C29         -9.9040    -4.3920    -1.7110 ca         1 7ED      -0.177500
     68 C30         -9.3050    -3.1350    -1.5190 ca         1 7ED      -0.057250
     69 C20         -8.0540     1.9410    -1.1110 ca         1 7ED      -0.059500
     70 C21         -7.3580     3.1530    -0.9560 ca         1 7ED      -0.176000
     71 C22         -6.7780     3.4750     0.2800 ca         1 7ED       0.138100
     72 C23         -6.8920     2.5890     1.3600 ca         1 7ED      -0.176000
     73 C24         -7.5860     1.3770     1.2080 ca         1 7ED      -0.059500
     74 O4         -10.3850    -6.5950    -0.9200 oh         1 7ED      -0.532100
     75 O3          -6.1010     4.6470     0.4380 oh         1 7ED      -0.535100
     76 H21         -0.6340    -1.0180     0.9570 hc         1 7ED       0.039700
     77 H27         -0.9910     0.7100     0.9680 hc         1 7ED       0.039700
     78 H28         -1.9470     0.5270    -1.3490 hc         1 7ED       0.040700
     79 H29         -1.5910    -1.2010    -1.3600 hc         1 7ED       0.040700
     80 H30         -3.1370    -1.5320     0.5940 hc         1 7ED       0.053200
     81 H31         -3.4920     0.1980     0.6050 hc         1 7ED       0.053200
     82 H32         -4.4550     0.0230    -1.7000 h1         1 7ED       0.050450
     83 H33         -4.1090    -1.7270    -1.7080 h1         1 7ED       0.050450
     84 H34         -7.5420    -1.4660     0.9230 hc         1 7ED       0.077700
     85 H35         -9.3360    -0.3050    -1.2330 hc         1 7ED       0.067200
     86 H36        -10.6540    -1.3530     0.5610 hc         1 7ED       0.042950
     87 H37         -9.7680    -0.4630     1.7890 hc         1 7ED       0.042950
     88 H38        -10.6960     1.7000     0.9060 hc         1 7ED       0.034700
     89 H39        -11.5300     0.8140    -0.3920 hc         1 7ED       0.034700
     90 H40        -11.9990     0.5640     1.3030 hc         1 7ED       0.034700
     91 H41         -7.9490    -3.6690     1.5790 ha         1 7ED       0.120250
     92 H42         -9.0070    -5.8770     1.2320 ha         1 7ED       0.122500
     93 H43        -10.4490    -4.5970    -2.6280 ha         1 7ED       0.122500
     94 H44         -9.3910    -2.3820    -2.2990 ha         1 7ED       0.120250
     95 H45         -8.4960     1.7010    -2.0760 ha         1 7ED       0.113500
     96 H46         -7.2740     3.8330    -1.8000 ha         1 7ED       0.120000
     97 H47         -6.4400     2.8380     2.3160 ha         1 7ED       0.120000
     98 H48         -7.6620     0.6980     2.0550 ha         1 7ED       0.113500
     99 H49        -10.2110    -7.1540    -0.1330 ho         1 7ED       0.465000
    100 H50         -6.1270     5.1360    -0.4120 ho         1 7ED       0.463500
@<TRIPOS>BOND
     1     1     2 1   
     2     1    26 1   
     3     1    27 1   
     4     1    28 1   
     5     2     3 1   
     6     2    29 1   
     7     2    30 1   
     8     3     4 1   
     9     3    11 1   
    10     3    31 1   
    11     4     5 ar  
    12     4    10 ar  
    13     5     6 ar  
    14     5    32 1   
    15     6     7 ar  
    16     6    33 1   
    17     7     8 1   
    18     7     9 ar  
    19     8    34 1   
    20     9    10 ar  
    21     9    35 1   
    22    10    36 1   
    23    11    12 1   
    24    11    19 1   
    25    11    37 1   
    26    12    13 1   
    27    12    18 2   
    28    13    14 1   
    29    14    15 1   
    30    14    38 1   
    31    14    39 1   
    32    15    16 1   
    33    15    40 1   
    34    15    41 1   
    35    16    17 1   
    36    16    42 1   
    37    16    43 1   
    38    17    44 1   
    39    17    45 1   
    40    17    51 1   
    41    19    20 ar  
    42    19    25 ar  
    43    20    21 ar  
    44    20    46 1   
    45    21    22 ar  
    46    21    47 1   
    47    22    23 1   
    48    22    24 ar  
    49    23    48 1   
    50    24    25 ar  
    51    24    49 1   
    52    25    50 1   
    53    51    52 1   
    54    51    76 1   
    55    51    77 1   
    56    52    53 1   
    57    52    78 1   
    58    52    79 1   
    59    53    54 1   
    60    53    80 1   
    61    53    81 1   
    62    54    55 1   
    63    54    82 1   
    64    54    83 1   
    65    55    56 1   
    66    56    57 2   
    67    56    58 1   
    68    58    59 1   
    69    58    61 1   
    70    58    84 1   
    71    59    60 1   
    72    59    62 1   
    73    59    85 1   
    74    60    63 1   
    75    60    86 1   
    76    60    87 1   
    77    61    64 ar  
    78    61    68 ar  
    79    62    69 ar  
    80    62    73 ar  
    81    63    88 1   
    82    63    89 1   
    83    63    90 1   
    84    64    65 ar  
    85    64    91 1   
    86    65    66 ar  
    87    65    92 1   
    88    66    67 ar  
    89    66    74 1   
    90    67    68 ar  
    91    67    93 1   
    92    68    94 1   
    93    69    70 ar  
    94    69    95 1   
    95    70    71 ar  
    96    70    96 1   
    97    71    72 ar  
    98    71    75 1   
    99    72    73 ar  
   100    72    97 1   
   101    73    98 1   
   102    74    99 1   
   103    75   100 1   
@<TRIPOS>SUBSTRUCTURE
     1 7ED         1 TEMP              0 ****  ****    0 ROOT
