@<TRIPOS>MOLECULE
7EE
   58    62     1     0     0
SMALL
bcc


@<TRIPOS>ATOM
      1 C01         -4.8600    -2.6160    -0.9470 ca         1 7EE      -0.164000
      2 C02         -5.6820    -2.3540     0.1440 ca         1 7EE       0.136100
      3 C03         -5.2770    -1.4150     1.0820 ca         1 7EE      -0.226000
      4 C04         -4.0710    -0.7300     0.9520 ca         1 7EE      -0.031300
      5 C05         -3.2400    -0.9780    -0.1470 ca         1 7EE      -0.099300
      6 C06         -3.6630    -1.9330    -1.0730 ca         1 7EE      -0.092000
      7 C07         -3.7100     0.2780     2.0130 c6         1 7EE      -0.034100
      8 C08         -2.2470     0.6870     1.9800 c6         1 7EE      -0.069400
      9 C09         -1.8280     1.0010     0.5520 c6         1 7EE      -0.046700
     10 C10         -1.9010    -0.2790    -0.2960 c6         1 7EE      -0.006400
     11 C11         -0.4190     1.5540     0.4460 c5         1 7EE      -0.068700
     12 C12         -0.0360     1.9170    -0.9950 c5         1 7EE      -0.022000
     13 C13         -0.1310     0.6710    -1.8700 c6         1 7EE      -0.061400
     14 C14         -1.5050     0.0020    -1.7520 c6         1 7EE      -0.069400
     15 O01         -6.8440    -3.0350     0.2490 oh         1 7EE      -0.496100
     16 C15         -0.0280     2.7860     1.2660 c5         1 7EE      -0.062400
     17 C16          1.1570     3.4060     0.4940 c5         1 7EE      -0.103400
     18 C17          1.3790     2.5080    -0.7560 c5         1 7EE       0.250900
     19 C18         -0.9340     3.0180    -1.5750 c3         1 7EE      -0.078100
     20 O02          1.8210     3.2150    -1.8920 oh         1 7EE      -0.578800
     21 C19          2.3490     1.4510    -0.4340 c1         1 7EE      -0.169100
     22 C20          3.1760     0.6120    -0.1700 cg         1 7EE      -0.092000
     23 C21          4.1390    -0.3940     0.1250 ca         1 7EE      -0.030000
     24 C22          5.3920    -0.0680     0.6540 ca         1 7EE      -0.060500
     25 C23          6.3280    -1.0450     0.9330 ca         1 7EE      -0.207500
     26 C24          6.0460    -2.3980     0.6940 ca         1 7EE       0.175600
     27 C25          4.7870    -2.7270     0.1710 ca         1 7EE      -0.207500
     28 C26          3.8580    -1.7450    -0.1080 ca         1 7EE      -0.060500
     29 N01          6.9900    -3.3650     0.9160 nv         1 7EE      -0.836200
     30 H1          -5.1530    -3.3500    -1.6880 ha         1 7EE       0.145000
     31 H2          -5.9100    -1.2090     1.9410 ha         1 7EE       0.126000
     32 H3          -3.0400    -2.1680    -1.9270 ha         1 7EE       0.131000
     33 H4          -4.3350     1.1680     1.8760 hc         1 7EE       0.047700
     34 H5          -3.9760    -0.1190     2.9960 hc         1 7EE       0.047700
     35 H6          -2.0990     1.5520     2.6290 hc         1 7EE       0.043700
     36 H7          -1.6180    -0.1170     2.3770 hc         1 7EE       0.043700
     37 H8          -2.5390     1.7370     0.1500 hc         1 7EE       0.056700
     38 H9          -1.1350    -0.9540     0.1170 hc         1 7EE       0.053700
     39 H10          0.2480     0.7370     0.7560 hc         1 7EE       0.055700
     40 H11          0.0670     0.9160    -2.9180 hc         1 7EE       0.050200
     41 H12          0.6360    -0.0520    -1.5730 hc         1 7EE       0.050200
     42 H13         -1.4700    -0.9270    -2.3250 hc         1 7EE       0.042200
     43 H14         -2.2780     0.6160    -2.2240 hc         1 7EE       0.042200
     44 H15         -7.3170    -2.7610     1.0430 ho         1 7EE       0.423000
     45 H16         -0.8570     3.4950     1.3380 hc         1 7EE       0.044200
     46 H17          0.2440     2.5180     2.2870 hc         1 7EE       0.044200
     47 H18          0.9220     4.4170     0.1550 hc         1 7EE       0.051700
     48 H19          2.0620     3.4750     1.0990 hc         1 7EE       0.051700
     49 H20         -0.9610     3.9180    -0.9600 hc         1 7EE       0.038033
     50 H21         -0.5930     3.3070    -2.5690 hc         1 7EE       0.038033
     51 H22         -1.9620     2.6770    -1.6790 hc         1 7EE       0.038033
     52 H23          2.6670     3.6260    -1.6850 ho         1 7EE       0.409000
     53 H24          5.6370     0.9690     0.8490 ha         1 7EE       0.134000
     54 H25          7.2900    -0.7610     1.3400 ha         1 7EE       0.131500
     55 H26          4.5400    -3.7650    -0.0180 ha         1 7EE       0.131500
     56 H27          2.8950    -2.0280    -0.5130 ha         1 7EE       0.134000
     57 H28          7.7420    -3.1350     1.5440 hn         1 7EE       0.402300
     58 H29          6.6580    -4.3080     1.0300 hn         1 7EE       0.402300
@<TRIPOS>BOND
     1     1     2 ar  
     2     1     6 ar  
     3     1    30 1   
     4     2     3 ar  
     5     2    15 1   
     6     3     4 ar  
     7     3    31 1   
     8     4     5 ar  
     9     4     7 1   
    10     5     6 ar  
    11     5    10 1   
    12     6    32 1   
    13     7     8 1   
    14     7    33 1   
    15     7    34 1   
    16     8     9 1   
    17     8    35 1   
    18     8    36 1   
    19     9    10 1   
    20     9    11 1   
    21     9    37 1   
    22    10    14 1   
    23    10    38 1   
    24    11    12 1   
    25    11    16 1   
    26    11    39 1   
    27    12    13 1   
    28    12    18 1   
    29    12    19 1   
    30    13    14 1   
    31    13    40 1   
    32    13    41 1   
    33    14    42 1   
    34    14    43 1   
    35    15    44 1   
    36    16    17 1   
    37    16    45 1   
    38    16    46 1   
    39    17    18 1   
    40    17    47 1   
    41    17    48 1   
    42    18    20 1   
    43    18    21 1   
    44    19    49 1   
    45    19    50 1   
    46    19    51 1   
    47    20    52 1   
    48    21    22 3   
    49    22    23 1   
    50    23    24 ar  
    51    23    28 ar  
    52    24    25 ar  
    53    24    53 1   
    54    25    26 ar  
    55    25    54 1   
    56    26    27 ar  
    57    26    29 1   
    58    27    28 ar  
    59    27    55 1   
    60    28    56 1   
    61    29    57 1   
    62    29    58 1   
@<TRIPOS>SUBSTRUCTURE
     1 7EE         1 TEMP              0 ****  ****    0 ROOT
