@<TRIPOS>MOLECULE
7EE
   58    62     1     0     0
SMALL
No Charge or Current Charge


@<TRIPOS>ATOM
      1 C01         -5.0830    -2.5480    -1.0590 ca         1 7EE      -0.146000
      2 C02         -5.8700    -2.3160     0.0740 ca         1 7EE       0.136100
      3 C03         -5.4160    -1.4460     1.0730 ca         1 7EE      -0.208000
      4 C04         -4.1720    -0.7970     0.9460 ca         1 7EE      -0.031300
      5 C05         -3.3750    -1.0060    -0.2120 ca         1 7EE      -0.099300
      6 C06         -3.8430    -1.9050    -1.2000 ca         1 7EE      -0.074000
      7 C07         -3.7370     0.1420     2.0790 c6         1 7EE      -0.034100
      8 C08         -2.2570     0.5700     2.0110 c6         1 7EE      -0.069400
      9 C09         -1.8810     0.9500     0.5620 c6         1 7EE      -0.046700
     10 C10         -1.9930    -0.3140    -0.3550 c6         1 7EE      -0.006400
     11 C11         -0.4510     1.5490     0.4540 c5         1 7EE      -0.068700
     12 C12         -0.0730     1.9640    -1.0010 c5         1 7EE      -0.022000
     13 C13         -0.1780     0.7040    -1.9170 c6         1 7EE      -0.061400
     14 C14         -1.5800     0.0290    -1.8290 c6         1 7EE      -0.069400
     15 O01         -7.0720    -2.9420     0.2050 oh         1 7EE      -0.535100
     16 C15         -0.1160     2.8350     1.2610 c5         1 7EE      -0.062400
     17 C16          1.1750     3.3980     0.5610 c5         1 7EE      -0.103400
     18 C17          1.4270     2.4850    -0.6980 c5         1 7EE       0.274100
     19 C18         -0.9780     3.0890    -1.6290 c3         1 7EE      -0.078100
     20 O02          1.9470     3.2480    -1.7770 oh         1 7EE      -0.641000
     21 C19          2.5100     1.4740    -0.4020 c1         1 7EE      -0.169100
     22 C20          3.3450     0.6290    -0.1490 cg         1 7EE      -0.092000
     23 C21          4.3150    -0.3820     0.1520 ca         1 7EE      -0.030000
     24 C22          5.6560    -0.0270     0.3920 ca         1 7EE      -0.042500
     25 C23          6.6050    -1.0230     0.6880 ca         1 7EE      -0.189500
     26 C24          6.2180    -2.3690     0.7440 ca         1 7EE       0.314000
     27 C25          4.8830    -2.7250     0.5060 ca         1 7EE      -0.189500
     28 C26          3.9300    -1.7340     0.2090 ca         1 7EE      -0.042500
     29 N01          7.1420    -3.3340     1.0330 nv         1 7EE      -1.085000
     30 H1          -5.4300    -3.2320    -1.8290 ha         1 7EE       0.127000
     31 H2          -6.0250    -1.2700     1.9560 ha         1 7EE       0.108000
     32 H3          -3.2540    -2.1250    -2.0850 ha         1 7EE       0.113000
     33 H4          -4.3690     1.0400     2.0470 hc         1 7EE       0.047700
     34 H5          -3.9310    -0.3300     3.0520 hc         1 7EE       0.047700
     35 H6          -2.0950     1.4140     2.6930 hc         1 7EE       0.043700
     36 H7          -1.6150    -0.2490     2.3640 hc         1 7EE       0.043700
     37 H8          -2.6030     1.7030     0.2180 hc         1 7EE       0.056700
     38 H9          -1.2560    -1.0440     0.0090 hc         1 7EE       0.053700
     39 H10          0.1970     0.7350     0.8060 hc         1 7EE       0.055700
     40 H11          0.0510     0.9700    -2.9580 hc         1 7EE       0.050200
     41 H12          0.5760    -0.0390    -1.6250 hc         1 7EE       0.050200
     42 H13         -1.5330    -0.8840    -2.4340 hc         1 7EE       0.042200
     43 H14         -2.3470     0.6610    -2.2970 hc         1 7EE       0.042200
     44 H15         -7.4740    -2.6600     1.0540 ho         1 7EE       0.462000
     45 H16         -0.9360     3.5610     1.2280 hc         1 7EE       0.044200
     46 H17          0.0630     2.6140     2.3200 hc         1 7EE       0.044200
     47 H18          1.0190     4.4430     0.2720 hc         1 7EE       0.051700
     48 H19          2.0310     3.4060     1.2460 hc         1 7EE       0.051700
     49 H20         -0.9210     4.0380    -1.0850 hc         1 7EE       0.038033
     50 H21         -0.6720     3.3040    -2.6600 hc         1 7EE       0.038033
     51 H22         -2.0360     2.8140    -1.6650 hc         1 7EE       0.038033
     52 H23          2.9140     3.2900    -1.6240 ho         1 7EE       0.448000
     53 H24          5.9630     1.0160     0.3490 ha         1 7EE       0.116000
     54 H25          7.6380    -0.7420     0.8710 ha         1 7EE       0.113500
     55 H26          4.5790    -3.7670     0.5480 ha         1 7EE       0.113500
     56 H27          2.8950    -2.0170     0.0250 ha         1 7EE       0.116000
     57 H28          8.0670    -3.0630     1.3600 hn         1 7EE       0.457500
     58 H29          6.8350    -4.2850     1.2300 hn         1 7EE       0.457500
@<TRIPOS>BOND
     1     1     2 ar  
     2     1     6 ar  
     3     1    30 1   
     4     2     3 ar  
     5     2    15 1   
     6     3     4 ar  
     7     3    31 1   
     8     4     5 ar  
     9     4     7 1   
    10     5     6 ar  
    11     5    10 1   
    12     6    32 1   
    13     7     8 1   
    14     7    33 1   
    15     7    34 1   
    16     8     9 1   
    17     8    35 1   
    18     8    36 1   
    19     9    10 1   
    20     9    11 1   
    21     9    37 1   
    22    10    14 1   
    23    10    38 1   
    24    11    12 1   
    25    11    16 1   
    26    11    39 1   
    27    12    13 1   
    28    12    18 1   
    29    12    19 1   
    30    13    14 1   
    31    13    40 1   
    32    13    41 1   
    33    14    42 1   
    34    14    43 1   
    35    15    44 1   
    36    16    17 1   
    37    16    45 1   
    38    16    46 1   
    39    17    18 1   
    40    17    47 1   
    41    17    48 1   
    42    18    20 1   
    43    18    21 1   
    44    19    49 1   
    45    19    50 1   
    46    19    51 1   
    47    20    52 1   
    48    21    22 3   
    49    22    23 1   
    50    23    24 ar  
    51    23    28 ar  
    52    24    25 ar  
    53    24    53 1   
    54    25    26 ar  
    55    25    54 1   
    56    26    27 ar  
    57    26    29 1   
    58    27    28 ar  
    59    27    55 1   
    60    28    56 1   
    61    29    57 1   
    62    29    58 1   
@<TRIPOS>SUBSTRUCTURE
     1 7EE         1 TEMP              0 ****  ****    0 ROOT
