@<TRIPOS>MOLECULE
7EF
   43    45     1     0     0
SMALL
No Charge or Current Charge


@<TRIPOS>ATOM
      1 O01          1.8570     0.6770     2.0940 oh         1 7EF      -0.532100
      2 C02          2.6110     0.7820     0.9680 ca         1 7EF       0.214100
      3 C03          3.9900     0.9910     1.0880 ca         1 7EF      -0.259000
      4 C04          4.7850     1.0730    -0.0620 ca         1 7EF       0.191100
      5 O05          6.1260     1.2770     0.0470 oh         1 7EF      -0.526100
      6 C06          4.2030     0.9440    -1.3290 ca         1 7EF      -0.188000
      7 C07          2.8190     0.7320    -1.4520 ca         1 7EF      -0.015000
      8 C08          2.0110     0.6510    -0.3010 ca         1 7EF      -0.187800
      9 C09          0.5720     0.4180    -0.4350 cc         1 7EF      -0.044300
     10 C10         -0.4740     1.2330     0.0720 ca         1 7EF      -0.153000
     11 C11         -1.6400     0.5680    -0.2310 ca         1 7EF      -0.045000
     12 C12         -2.8870     1.1180     0.1400 ca         1 7EF      -0.180300
     13 C13         -4.1990     0.3860    -0.1830 c3         1 7EF       0.368300
     14 F14         -4.3620     0.2150    -1.5160 f          1 7EF      -0.113333
     15 F15         -4.2400    -0.8420     0.3830 f          1 7EF      -0.113333
     16 F16         -5.2940     1.0490     0.2560 f          1 7EF      -0.113333
     17 C17         -2.8840     2.3670     0.8150 ca         1 7EF      -0.028000
     18 C18         -1.6730     3.0380     1.0990 ca         1 7EF      -0.152000
     19 C19         -0.4420     2.4720     0.7220 ca         1 7EF      -0.019000
     20 N20         -1.4220    -0.6380    -0.9120 nc         1 7EF      -0.270400
     21 N21         -0.0280    -0.6890    -1.0260 na         1 7EF       0.173500
     22 C22          0.6290    -1.8490    -1.6500 c3         1 7EF       0.116800
     23 C23          1.4100    -2.6910    -0.6500 c2         1 7EF      -0.286200
     24 C24          1.0260    -3.8380    -0.0600 c2         1 7EF      -0.048400
     25 C25          1.9240    -4.5950     0.8990 c3         1 7EF      -0.069400
     26 C26         -0.3190    -4.5210    -0.2520 c3         1 7EF      -0.069400
     27 H1           0.9300     0.5570     1.7990 ho         1 7EF       0.484000
     28 H2           4.4330     1.0840     2.0760 ha         1 7EF       0.133000
     29 H3           6.3480     1.3440     1.0000 ho         1 7EF       0.471000
     30 H4           4.8230     1.0100    -2.2190 ha         1 7EF       0.137000
     31 H5           2.3760     0.6440    -2.4410 ha         1 7EF       0.122000
     32 H6          -3.8190     2.8330     1.1190 ha         1 7EF       0.127000
     33 H7          -1.6930     3.9980     1.6090 ha         1 7EF       0.120000
     34 H8           0.4970     2.9830     0.9250 ha         1 7EF       0.124000
     35 H9          -0.1260    -2.4500    -2.1710 h1         1 7EF       0.077200
     36 H10          1.3120    -1.4760    -2.4210 h1         1 7EF       0.077200
     37 H11          2.3980    -2.2820    -0.4360 ha         1 7EF       0.181000
     38 H12          1.4610    -4.6800     1.8900 hc         1 7EF       0.049033
     39 H13          2.1250    -5.6100     0.5350 hc         1 7EF       0.049033
     40 H14          2.8920    -4.0970     1.0310 hc         1 7EF       0.049033
     41 H15         -0.1960    -5.5060    -0.7180 hc         1 7EF       0.049033
     42 H16         -0.8220    -4.6710     0.7110 hc         1 7EF       0.049033
     43 H17         -1.0070    -3.9460    -0.8810 hc         1 7EF       0.049033
@<TRIPOS>BOND
     1     1     2 1   
     2     1    27 1   
     3     2     3 ar  
     4     2     8 ar  
     5     3     4 ar  
     6     3    28 1   
     7     4     5 1   
     8     4     6 ar  
     9     5    29 1   
    10     6     7 ar  
    11     6    30 1   
    12     7     8 ar  
    13     7    31 1   
    14     8     9 1   
    15     9    10 2   
    16     9    21 1   
    17    10    11 ar  
    18    10    19 ar  
    19    11    12 ar  
    20    11    20 2   
    21    12    13 1   
    22    12    17 ar  
    23    13    14 1   
    24    13    15 1   
    25    13    16 1   
    26    17    18 ar  
    27    17    32 1   
    28    18    19 ar  
    29    18    33 1   
    30    19    34 1   
    31    20    21 1   
    32    21    22 1   
    33    22    23 1   
    34    22    35 1   
    35    22    36 1   
    36    23    24 2   
    37    23    37 1   
    38    24    25 1   
    39    24    26 1   
    40    25    38 1   
    41    25    39 1   
    42    25    40 1   
    43    26    41 1   
    44    26    42 1   
    45    26    43 1   
@<TRIPOS>SUBSTRUCTURE
     1 7EF         1 TEMP              0 ****  ****    0 ROOT
