@<TRIPOS>MOLECULE
7EF
   43    45     1     0     0
SMALL
abcg2


@<TRIPOS>ATOM
      1 O01          2.3130     0.2960     1.9960 oh         1 7EF      -0.532100
      2 C02          2.8790     0.6710     0.8360 ca         1 7EF       0.214100
      3 C03          4.2360     0.9770     0.8670 ca         1 7EF      -0.259000
      4 C04          4.8880     1.3630    -0.2970 ca         1 7EF       0.191100
      5 O05          6.1950     1.6710    -0.3140 oh         1 7EF      -0.526100
      6 C06          4.1880     1.4440    -1.5030 ca         1 7EF      -0.188000
      7 C07          2.8410     1.1440    -1.5160 ca         1 7EF      -0.015000
      8 C08          2.1610     0.7510    -0.3620 ca         1 7EF      -0.187800
      9 C09          0.7270     0.4540    -0.3860 cc         1 7EF      -0.044300
     10 C10         -0.3580     1.1850     0.1070 ca         1 7EF      -0.153000
     11 C11         -1.4900     0.3910    -0.2130 ca         1 7EF      -0.045000
     12 C12         -2.7900     0.8360     0.1330 ca         1 7EF      -0.180300
     13 C13         -3.9720    -0.0040    -0.2120 c3         1 7EF       0.368300
     14 F14         -4.0750    -0.1950    -1.5370 f          1 7EF      -0.113333
     15 F15         -3.8990    -1.2210     0.3430 f          1 7EF      -0.113333
     16 F16         -5.1250     0.5390     0.1910 f          1 7EF      -0.113333
     17 C17         -2.9030     2.0380     0.7770 ca         1 7EF      -0.028000
     18 C18         -1.7660     2.8280     1.0920 ca         1 7EF      -0.152000
     19 C19         -0.5020     2.4210     0.7660 ca         1 7EF      -0.019000
     20 N20         -1.1290    -0.7250    -0.8450 nc         1 7EF      -0.270400
     21 N21          0.1890    -0.6520    -0.9290 na         1 7EF       0.173500
     22 C22          0.9230    -1.7990    -1.4570 c3         1 7EF       0.116800
     23 C23          1.3650    -2.7120    -0.3530 c2         1 7EF      -0.286200
     24 C24          0.6950    -3.7760     0.0970 c2         1 7EF      -0.048400
     25 C25          1.2480    -4.6110     1.2130 c3         1 7EF      -0.069400
     26 C26         -0.6300    -4.2350    -0.4300 c3         1 7EF      -0.069400
     27 H1           1.3760     0.0970     1.8790 ho         1 7EF       0.484000
     28 H2           4.7740     0.9090     1.8060 ha         1 7EF       0.133000
     29 H3           6.5730     1.5920     0.5690 ho         1 7EF       0.471000
     30 H4           4.6950     1.7480    -2.4090 ha         1 7EF       0.137000
     31 H5           2.2920     1.2190    -2.4460 ha         1 7EF       0.122000
     32 H6          -3.8750     2.4180     1.0600 ha         1 7EF       0.127000
     33 H7          -1.9200     3.7700     1.5990 ha         1 7EF       0.120000
     34 H8           0.3610     3.0320     1.0020 ha         1 7EF       0.124000
     35 H9           0.2630    -2.2860    -2.1700 h1         1 7EF       0.077200
     36 H10          1.7840    -1.4230    -2.0080 h1         1 7EF       0.077200
     37 H11          2.3110    -2.4580     0.1160 ha         1 7EF       0.181000
     38 H12          0.5450    -4.6530     2.0500 hc         1 7EF       0.049033
     39 H13          1.3990    -5.6420     0.8840 hc         1 7EF       0.049033
     40 H14          2.1980    -4.2300     1.5830 hc         1 7EF       0.049033
     41 H15         -0.5790    -5.2850    -0.7290 hc         1 7EF       0.049033
     42 H16         -1.3840    -4.1700     0.3580 hc         1 7EF       0.049033
     43 H17         -0.9910    -3.6550    -1.2740 hc         1 7EF       0.049033
@<TRIPOS>BOND
     1     1     2 1   
     2     1    27 1   
     3     2     3 ar  
     4     2     8 ar  
     5     3     4 ar  
     6     3    28 1   
     7     4     5 1   
     8     4     6 ar  
     9     5    29 1   
    10     6     7 ar  
    11     6    30 1   
    12     7     8 ar  
    13     7    31 1   
    14     8     9 1   
    15     9    10 2   
    16     9    21 1   
    17    10    11 ar  
    18    10    19 ar  
    19    11    12 ar  
    20    11    20 2   
    21    12    13 1   
    22    12    17 ar  
    23    13    14 1   
    24    13    15 1   
    25    13    16 1   
    26    17    18 ar  
    27    17    32 1   
    28    18    19 ar  
    29    18    33 1   
    30    19    34 1   
    31    20    21 1   
    32    21    22 1   
    33    22    23 1   
    34    22    35 1   
    35    22    36 1   
    36    23    24 2   
    37    23    37 1   
    38    24    25 1   
    39    24    26 1   
    40    25    38 1   
    41    25    39 1   
    42    25    40 1   
    43    26    41 1   
    44    26    42 1   
    45    26    43 1   
@<TRIPOS>SUBSTRUCTURE
     1 7EF         1 TEMP              0 ****  ****    0 ROOT
