@<TRIPOS>MOLECULE
7EG
   39    41     1     0     0
SMALL
bcc


@<TRIPOS>ATOM
      1 O01         -1.1910     4.7300     0.2560 oh         1 7EG      -0.492100
      2 C02         -0.6790     3.4880     0.1590 ca         1 7EG       0.146100
      3 C03         -0.9390     2.5930     1.1960 ca         1 7EG      -0.196000
      4 C04         -0.4400     1.3050     1.1370 ca         1 7EG      -0.072000
      5 C05          0.0900     3.0740    -0.9250 ca         1 7EG      -0.196000
      6 C06          0.5890     1.7810    -0.9650 ca         1 7EG      -0.072000
      7 C07          0.3330     0.8760     0.0600 cp         1 7EG      -0.095000
      8 C08          0.8380    -0.5180    -0.0020 cp         1 7EG       0.054000
      9 C09          2.2250    -0.7700     0.0300 ca         1 7EG      -0.252900
     10 C10          3.1570     0.3360     0.2210 ce         1 7EG       0.464800
     11 N11          4.4150     0.1520     0.1490 n2         1 7EG      -0.507200
     12 O12          5.1460     1.2720     0.3900 oh         1 7EG      -0.360500
     13 C13          2.6930    -2.0980    -0.0500 ca         1 7EG       0.199100
     14 O14          3.9920    -2.4100    -0.0520 oh         1 7EG      -0.506100
     15 C15          1.7790    -3.1460    -0.1140 ca         1 7EG      -0.186000
     16 C16          0.4260    -2.8810    -0.1220 ca         1 7EG      -0.061000
     17 C17         -0.0710    -1.5770    -0.0800 cq         1 7EG      -0.073000
     18 C18         -1.5360    -1.3700    -0.1270 cq         1 7EG      -0.069000
     19 C19         -2.1380    -0.5760    -1.1040 ca         1 7EG      -0.076000
     20 C20         -3.5100    -0.4120    -1.1560 ca         1 7EG      -0.195500
     21 C21         -4.3250    -1.0440    -0.2180 ca         1 7EG       0.141100
     22 O22         -5.6560    -0.8480    -0.3050 oh         1 7EG      -0.494100
     23 C23         -3.7430    -1.8470     0.7590 ca         1 7EG      -0.195500
     24 C24         -2.3650    -2.0040     0.7940 ca         1 7EG      -0.076000
     25 H1          -0.9200     5.2660    -0.4980 ho         1 7EG       0.427000
     26 H2          -1.5320     2.9110     2.0440 ha         1 7EG       0.141000
     27 H3          -0.6540     0.6200     1.9480 ha         1 7EG       0.138500
     28 H4           0.2990     3.7570    -1.7400 ha         1 7EG       0.141000
     29 H5           1.1780     1.4730    -1.8210 ha         1 7EG       0.138500
     30 H6           2.7560     1.3200     0.4520 h4         1 7EG       0.022800
     31 H7           6.0630     0.9890     0.3030 ho         1 7EG       0.430000
     32 H8           4.5270    -1.5870    -0.0060 ho         1 7EG       0.470000
     33 H9           2.1420    -4.1650    -0.1670 ha         1 7EG       0.151000
     34 H10         -0.2690    -3.7090    -0.1900 ha         1 7EG       0.138000
     35 H11         -1.5250    -0.0800    -1.8460 ha         1 7EG       0.134500
     36 H12         -3.9580     0.2030    -1.9270 ha         1 7EG       0.139000
     37 H13         -6.1130    -1.3170     0.4030 ho         1 7EG       0.425000
     38 H14         -4.3600    -2.3480     1.4960 ha         1 7EG       0.139000
     39 H15         -1.9300    -2.6250     1.5670 ha         1 7EG       0.134500
@<TRIPOS>BOND
     1     1     2 1   
     2     1    25 1   
     3     2     3 ar  
     4     2     5 ar  
     5     3     4 ar  
     6     3    26 1   
     7     4     7 ar  
     8     4    27 1   
     9     5     6 ar  
    10     5    28 1   
    11     6     7 ar  
    12     6    29 1   
    13     7     8 1   
    14     8     9 ar  
    15     8    17 2   
    16     9    10 1   
    17     9    13 ar  
    18    10    11 2   
    19    10    30 1   
    20    11    12 1   
    21    12    31 1   
    22    13    14 1   
    23    13    15 ar  
    24    14    32 1   
    25    15    16 ar  
    26    15    33 1   
    27    16    17 1   
    28    16    34 1   
    29    17    18 1   
    30    18    19 1   
    31    18    24 2   
    32    19    20 ar  
    33    19    35 1   
    34    20    21 ar  
    35    20    36 1   
    36    21    22 1   
    37    21    23 ar  
    38    22    37 1   
    39    23    24 ar  
    40    23    38 1   
    41    24    39 1   
@<TRIPOS>SUBSTRUCTURE
     1 7EG         1 TEMP              0 ****  ****    0 ROOT
