@<TRIPOS>MOLECULE
7EG
   39    41     1     0     0
SMALL
No Charge or Current Charge


@<TRIPOS>ATOM
      1 O01         -1.0960     4.8400     0.2290 oh         1 7EG      -0.531100
      2 C02         -0.6230     3.5630     0.1740 ca         1 7EG       0.146100
      3 C03         -0.9480     2.6590     1.1950 ca         1 7EG      -0.178000
      4 C04         -0.4650     1.3400     1.1480 ca         1 7EG      -0.054000
      5 C05          0.1830     3.1520    -0.8990 ca         1 7EG      -0.178000
      6 C06          0.6660     1.8320    -0.9470 ca         1 7EG      -0.054000
      7 C07          0.3560     0.9060     0.0800 cp         1 7EG      -0.095000
      8 C08          0.8480    -0.5050     0.0240 cp         1 7EG       0.054000
      9 C09          2.2480    -0.7610     0.0840 ca         1 7EG      -0.252900
     10 C10          3.2250     0.3800     0.1880 ce         1 7EG       0.464800
     11 N11          4.5020     0.2330    -0.0410 n2         1 7EG      -0.408700
     12 O12          5.2760     1.3940     0.1510 oh         1 7EG      -0.498000
     13 C13          2.6720    -2.1170     0.0470 ca         1 7EG       0.199100
     14 O14          3.9920    -2.4510     0.0840 oh         1 7EG      -0.545100
     15 C15          1.7480    -3.1750     0.0010 ca         1 7EG      -0.168000
     16 C16          0.3640    -2.9470    -0.0250 ca         1 7EG      -0.043000
     17 C17         -0.1070    -1.6270    -0.0250 cq         1 7EG      -0.073000
     18 C18         -1.5990    -1.4350    -0.1060 cq         1 7EG      -0.069000
     19 C19         -2.1630    -0.5130    -1.0140 ca         1 7EG      -0.058000
     20 C20         -3.5560    -0.3420    -1.0830 ca         1 7EG      -0.177500
     21 C21         -4.4010    -1.0910    -0.2540 ca         1 7EG       0.141100
     22 O22         -5.7500    -0.9170    -0.3300 oh         1 7EG      -0.533100
     23 C23         -3.8540    -2.0170     0.6460 ca         1 7EG      -0.177500
     24 C24         -2.4600    -2.1910     0.7180 ca         1 7EG      -0.058000
     25 H1          -0.7720     5.3240    -0.5600 ho         1 7EG       0.466000
     26 H2          -1.5760     2.9780     2.0230 ha         1 7EG       0.123000
     27 H3          -0.7270     0.6440     1.9420 ha         1 7EG       0.120500
     28 H4           0.4360     3.8440    -1.6980 ha         1 7EG       0.123000
     29 H5           1.2800     1.5170    -1.7890 ha         1 7EG       0.120500
     30 H6           2.8320     1.3450     0.5140 h4         1 7EG       0.022800
     31 H7           6.2070     1.1390    -0.0670 ho         1 7EG       0.469000
     32 H8           4.5010    -1.6060     0.0510 ho         1 7EG       0.509000
     33 H9           2.1140    -4.1990    -0.0150 ha         1 7EG       0.133000
     34 H10         -0.3180    -3.7930    -0.0740 ha         1 7EG       0.120000
     35 H11         -1.5290     0.0680    -1.6790 ha         1 7EG       0.116500
     36 H12         -3.9800     0.3710    -1.7850 ha         1 7EG       0.121000
     37 H13         -6.1770    -1.5200     0.3160 ho         1 7EG       0.464000
     38 H14         -4.5000    -2.6040     1.2940 ha         1 7EG       0.121000
     39 H15         -2.0560    -2.9070     1.4310 ha         1 7EG       0.116500
@<TRIPOS>BOND
     1     1     2 1   
     2     1    25 1   
     3     2     3 ar  
     4     2     5 ar  
     5     3     4 ar  
     6     3    26 1   
     7     4     7 ar  
     8     4    27 1   
     9     5     6 ar  
    10     5    28 1   
    11     6     7 ar  
    12     6    29 1   
    13     7     8 1   
    14     8     9 ar  
    15     8    17 2   
    16     9    10 1   
    17     9    13 ar  
    18    10    11 2   
    19    10    30 1   
    20    11    12 1   
    21    12    31 1   
    22    13    14 1   
    23    13    15 ar  
    24    14    32 1   
    25    15    16 ar  
    26    15    33 1   
    27    16    17 1   
    28    16    34 1   
    29    17    18 1   
    30    18    19 1   
    31    18    24 2   
    32    19    20 ar  
    33    19    35 1   
    34    20    21 ar  
    35    20    36 1   
    36    21    22 1   
    37    21    23 ar  
    38    22    37 1   
    39    23    24 ar  
    40    23    38 1   
    41    24    39 1   
@<TRIPOS>SUBSTRUCTURE
     1 7EG         1 TEMP              0 ****  ****    0 ROOT
