@<TRIPOS>MOLECULE
7EH
   29    31     1     0     0
SMALL
bcc


@<TRIPOS>ATOM
      1 N01          4.7360    -1.2220    -0.2380 nv         1 7EH      -0.901800
      2 C02          3.4530    -0.8060    -0.1900 cc         1 7EH       0.645700
      3 N03          2.4020    -1.5770    -0.3490 nd         1 7EH      -0.637100
      4 C04          1.3320    -0.7460    -0.1480 ca         1 7EH       0.005100
      5 C05          1.7750     0.5600     0.1330 ca         1 7EH       0.405800
      6 N06          3.1450     0.4950     0.1010 na         1 7EH      -0.289000
      7 C07          4.0720     1.5710     0.3550 c3         1 7EH       0.038600
      8 N08          1.0280     1.6090     0.3730 nb         1 7EH      -0.667000
      9 C09         -0.2850     1.3840     0.3330 ca         1 7EH       0.411200
     10 C10         -0.8670     0.1420     0.0540 cp         1 7EH      -0.164300
     11 C11         -2.3360     0.0030     0.0290 cp         1 7EH      -0.026000
     12 C12         -3.1460     1.0180    -0.4830 ca         1 7EH      -0.119500
     13 C13         -4.5270     0.8880    -0.4990 ca         1 7EH      -0.128000
     14 C14         -5.1270    -0.2660    -0.0120 ca         1 7EH      -0.126000
     15 C15         -4.3320    -1.2860     0.4940 ca         1 7EH      -0.128000
     16 C16         -2.9520    -1.1520     0.5170 ca         1 7EH      -0.119500
     17 C17         -0.0330    -0.9560    -0.1910 ca         1 7EH      -0.048000
     18 H1           4.8820    -2.1330    -0.6410 hn         1 7EH       0.425300
     19 H2           5.4500    -0.5540    -0.4790 hn         1 7EH       0.425300
     20 H3           4.6730     1.3680     1.2400 h1         1 7EH       0.055033
     21 H4           4.7300     1.7300    -0.4990 h1         1 7EH       0.055033
     22 H5           3.5030     2.4810     0.5220 h1         1 7EH       0.055033
     23 H6          -0.9180     2.2370     0.5520 h4         1 7EH       0.023100
     24 H7          -2.6950     1.9140    -0.8900 ha         1 7EH       0.132000
     25 H8          -5.1340     1.6870    -0.9040 ha         1 7EH       0.130500
     26 H9          -6.2040    -0.3700    -0.0270 ha         1 7EH       0.131000
     27 H10         -4.7870    -2.1880     0.8820 ha         1 7EH       0.130500
     28 H11         -2.3500    -1.9490     0.9360 ha         1 7EH       0.132000
     29 H12         -0.4420    -1.9310    -0.4270 ha         1 7EH       0.153000
@<TRIPOS>BOND
     1     1     2 1   
     2     1    18 1   
     3     1    19 1   
     4     2     3 2   
     5     2     6 1   
     6     3     4 1   
     7     4     5 ar  
     8     4    17 ar  
     9     5     6 1   
    10     5     8 ar  
    11     6     7 1   
    12     7    20 1   
    13     7    21 1   
    14     7    22 1   
    15     8     9 ar  
    16     9    10 ar  
    17     9    23 1   
    18    10    11 1   
    19    10    17 ar  
    20    11    12 ar  
    21    11    16 ar  
    22    12    13 ar  
    23    12    24 1   
    24    13    14 ar  
    25    13    25 1   
    26    14    15 ar  
    27    14    26 1   
    28    15    16 ar  
    29    15    27 1   
    30    16    28 1   
    31    17    29 1   
@<TRIPOS>SUBSTRUCTURE
     1 7EH         1 TEMP              0 ****  ****    0 ROOT
