@<TRIPOS>MOLECULE
7EH
   29    31     1     0     0
SMALL
No Charge or Current Charge


@<TRIPOS>ATOM
      1 N01          4.7230    -1.3340    -0.2070 nv         1 7EH      -1.012200
      2 C02          3.4850    -0.8470    -0.1060 cc         1 7EH       0.645700
      3 N03          2.4090    -1.6060    -0.2400 nd         1 7EH      -0.637100
      4 C04          1.3840    -0.6700    -0.0780 ca         1 7EH       0.070400
      5 C05          1.8540     0.6140     0.1430 ca         1 7EH       0.340500
      6 N06          3.2100     0.4870     0.1250 na         1 7EH      -0.318300
      7 C07          4.1340     1.6190     0.3290 c3         1 7EH       0.067900
      8 N08          1.0610     1.6890     0.3210 nb         1 7EH      -0.667000
      9 C09         -0.2780     1.4660     0.2770 ca         1 7EH       0.345900
     10 C10         -0.8740     0.1870     0.0590 cp         1 7EH      -0.099000
     11 C11         -2.3620     0.0140     0.0230 cp         1 7EH      -0.026000
     12 C12         -3.2080     1.0440    -0.4620 ca         1 7EH      -0.101500
     13 C13         -4.6040     0.8820    -0.4950 ca         1 7EH      -0.110000
     14 C14         -5.1850    -0.3130    -0.0430 ca         1 7EH      -0.108000
     15 C15         -4.3680    -1.3460     0.4430 ca         1 7EH      -0.110000
     16 C16         -2.9720    -1.1840     0.4750 ca         1 7EH      -0.101500
     17 C17          0.0060    -0.9140    -0.1240 ca         1 7EH      -0.030000
     18 H1           4.7950    -2.2570    -0.6190 hn         1 7EH       0.480500
     19 H2           5.4610    -0.6810    -0.4390 hn         1 7EH       0.480500
     20 H3           5.0040     1.2900     0.9110 h1         1 7EH       0.055033
     21 H4           4.4710     1.9980    -0.6440 h1         1 7EH       0.055033
     22 H5           3.6310     2.4270     0.8750 h1         1 7EH       0.055033
     23 H6          -0.9030     2.3440     0.4360 h4         1 7EH       0.023100
     24 H7          -2.7820     1.9740    -0.8310 ha         1 7EH       0.114000
     25 H8          -5.2350     1.6830    -0.8750 ha         1 7EH       0.112500
     26 H9          -6.2650    -0.4380    -0.0680 ha         1 7EH       0.113000
     27 H10         -4.8160    -2.2710     0.7980 ha         1 7EH       0.112500
     28 H11         -2.3620    -1.9920     0.8690 ha         1 7EH       0.114000
     29 H12         -0.3660    -1.9170    -0.3110 ha         1 7EH       0.135000
@<TRIPOS>BOND
     1     1     2 1   
     2     1    18 1   
     3     1    19 1   
     4     2     3 2   
     5     2     6 1   
     6     3     4 1   
     7     4     5 ar  
     8     4    17 ar  
     9     5     6 1   
    10     5     8 ar  
    11     6     7 1   
    12     7    20 1   
    13     7    21 1   
    14     7    22 1   
    15     8     9 ar  
    16     9    10 ar  
    17     9    23 1   
    18    10    11 1   
    19    10    17 ar  
    20    11    12 ar  
    21    11    16 ar  
    22    12    13 ar  
    23    12    24 1   
    24    13    14 ar  
    25    13    25 1   
    26    14    15 ar  
    27    14    26 1   
    28    15    16 ar  
    29    15    27 1   
    30    16    28 1   
    31    17    29 1   
@<TRIPOS>SUBSTRUCTURE
     1 7EH         1 TEMP              0 ****  ****    0 ROOT
