@<TRIPOS>MOLECULE
7EI
   83    88     1     0     0
SMALL
No Charge or Current Charge


@<TRIPOS>ATOM
      1 C10          1.4310   -11.3630   -21.4570 ca         1 7EI      -0.174000
      2 C13         -6.4080    -9.8410   -21.9890 ca         1 7EI       0.179000
      3 C15         -1.0020    -8.4400   -21.4760 ce         1 7EI      -0.075400
      4 C17         -2.6230    -8.8610   -18.0710 ca         1 7EI      -0.058500
      5 C20         -2.4330    -9.2830   -16.7440 ca         1 7EI      -0.172000
      6 C21         -5.7140   -10.9940   -22.3990 ca         1 7EI      -0.051000
      7 C22         -1.5190    -8.7000   -18.9330 ca         1 7EI      -0.080800
      8 C24         -7.4920   -11.1520   -20.2300 ca         1 7EI      -0.166500
      9 C26         -3.8460    -8.2830   -21.5480 c5         1 7EI      -0.342700
     10 C28         -5.8960   -12.2140   -21.7250 ca         1 7EI      -0.166500
     11 C01         -1.7220    -8.2550   -20.3270 cf         1 7EI      -0.061400
     12 C02         -2.8910    -7.3450   -20.7640 c5         1 7EI       0.212500
     13 C03          1.2560    -8.7710   -22.5300 ca         1 7EI      -0.056500
     14 C04          2.3900    -9.5640   -22.7800 ca         1 7EI      -0.174000
     15 C06         -7.1330    -8.2810   -23.8000 c3         1 7EI       0.166800
     16 C07          3.5530   -10.6360   -11.3100 c6         1 7EI      -0.075400
     17 C08         -6.6160    -8.5680   -25.2370 c3         1 7EI       0.279000
     18 C09         -6.7810   -12.3010   -20.6390 ca         1 7EI       0.156100
     19 C11          0.2060    -9.2690   -21.7350 ca         1 7EI      -0.077800
     20 C12         -7.3050    -9.9320   -20.9070 ca         1 7EI      -0.051000
     21 F02         -7.5550    -8.2360   -26.1510 f          1 7EI      -0.112333
     22 O01         -6.9190   -13.5240   -20.0150 os         1 7EI      -0.345100
     23 C14         -1.7460    -7.6570   -22.5690 c5         1 7EI       0.183500
     24 C16         -1.1430    -9.5440   -16.2570 ca         1 7EI       0.151100
     25 C18          3.2230   -11.2820    -9.9450 c6         1 7EI      -0.075400
     26 C19         -3.0110    -8.5300   -22.8700 c5         1 7EI      -0.066400
     27 C23          2.4780   -10.8570   -22.2440 ca         1 7EI       0.140100
     28 C25          0.0220   -10.6840   -12.8850 c3         1 7EI       0.162800
     29 N02          1.2320   -11.1460   -12.1460 n3         1 7EI      -0.726600
     30 C27          2.2750   -10.0880   -11.9920 c6         1 7EI       0.167300
     31 O03         -1.0200    -9.9550   -14.9460 os         1 7EI      -0.357100
     32 F03         -5.5000    -7.8570   -25.5180 f          1 7EI      -0.112333
     33 C29          0.2600   -10.2470   -14.3520 c3         1 7EI       0.161600
     34 O05         -2.3060    -6.5820   -21.8150 os         1 7EI      -0.417000
     35 S01         -5.4050    -7.3090   -21.8810 s6         1 7EI       1.237100
     36 C30          0.2960   -10.5720   -21.2060 ca         1 7EI      -0.056500
     37 C31         -0.0330    -9.3760   -17.1110 ca         1 7EI      -0.172000
     38 C32          2.1150   -12.3450   -10.1170 c6         1 7EI      -0.075400
     39 O06          3.5810   -11.6160   -22.4940 oh         1 7EI      -0.535100
     40 C33          0.8770   -11.7470   -10.8290 c6         1 7EI       0.167300
     41 C34         -0.2240    -8.9540   -18.4390 ca         1 7EI      -0.058500
     42 O04         -6.1300    -7.0370   -20.6360 o          1 7EI      -0.534000
     43 H1           1.4880   -12.3660   -21.0400 ha         1 7EI       0.124000
     44 H3          -3.6330    -8.6730   -18.4270 ha         1 7EI       0.121500
     45 H4          -3.2910    -9.4100   -16.0890 ha         1 7EI       0.125000
     46 H5          -5.0260   -10.9350   -23.2370 ha         1 7EI       0.128000
     47 H6          -8.1890   -11.1840   -19.3990 ha         1 7EI       0.131000
     48 H7          -4.1100    -9.1860   -20.9910 h1         1 7EI       0.110700
     49 H8          -5.3490   -13.0970   -22.0460 ha         1 7EI       0.131000
     50 H10         -3.3300    -6.7190   -19.9720 h1         1 7EI       0.118700
     51 H11          1.1990    -7.7670   -22.9450 ha         1 7EI       0.121000
     52 H12          3.2000    -9.1730   -23.3900 ha         1 7EI       0.124000
     53 H13         -7.7520   -14.7590   -18.5490 h1         1 7EI       0.046033
     54 H14         -7.5040   -13.0720   -18.0520 h1         1 7EI       0.046033
     55 H15         -8.8350   -13.4930   -19.1630 h1         1 7EI       0.046033
     56 H16         -7.4210    -7.2210   -23.7510 h1         1 7EI       0.096200
     57 H17         -8.0720    -8.8370   -23.6770 h1         1 7EI       0.096200
     58 H19          4.2800    -9.8250   -11.1760 hc         1 7EI       0.047200
     59 H20         -7.8640    -9.0540   -20.5940 ha         1 7EI       0.128000
     60 H21         -1.1570    -7.3240   -23.4350 h1         1 7EI       0.105700
     61 H22          4.1240   -11.7390    -9.5140 hc         1 7EI       0.039700
     62 H23          2.8900   -10.5090    -9.2390 hc         1 7EI       0.039700
     63 H24         -3.5210    -8.1940   -23.7780 hc         1 7EI       0.073200
     64 H25         -2.7560    -9.5860   -23.0170 hc         1 7EI       0.073200
     65 H26         -0.4430    -9.8450   -12.3480 h1         1 7EI       0.046200
     66 H27         -0.7170   -11.4960   -12.9060 h1         1 7EI       0.046200
     67 H29          2.5640    -9.6790   -12.9710 h1         1 7EI       0.031200
     68 H30          1.8810    -9.2510   -11.3960 h1         1 7EI       0.031200
     69 H31          0.7600   -11.0610   -14.8930 h1         1 7EI       0.043700
     70 H32          0.9040    -9.3590   -14.3760 h1         1 7EI       0.043700
     71 H33         -0.5160   -10.9710   -20.6020 ha         1 7EI       0.121000
     72 H34          0.9790    -9.5620   -16.7660 ha         1 7EI       0.125000
     73 H35          1.8240   -12.7460    -9.1370 hc         1 7EI       0.047200
     74 H36          2.5000   -13.1920   -10.7020 hc         1 7EI       0.047200
     75 H37          3.4700   -12.4820   -22.0450 ho         1 7EI       0.464000
     76 H38          0.4220   -10.9870   -10.1760 h1         1 7EI       0.031200
     77 H39          0.1320   -12.5450   -10.9630 h1         1 7EI       0.031200
     78 H40          0.6430    -8.8110   -19.0780 ha         1 7EI       0.121500
     79 N01         -6.2150    -8.6280   -22.6770 nh         1 7EI      -0.789300
     80 O02         -5.2000    -6.2510   -22.8760 o          1 7EI      -0.534000
     81 H18          4.0270   -11.3780   -11.9670 hc         1 7EI       0.047200
     82 F01         -6.3270    -9.8800   -25.4030 f          1 7EI      -0.112333
     83 C05         -7.7960   -13.7170   -18.8910 c3         1 7EI       0.147900
@<TRIPOS>BOND
     1     1    27 ar  
     2     1    36 ar  
     3     1    43 1   
     4     2     6 ar  
     5     2    20 ar  
     6     2    79 1   
     7     3    11 2   
     8     3    19 1   
     9     3    23 1   
    10     4     5 ar  
    11     4     7 ar  
    12     4    44 1   
    13     5    24 ar  
    14     5    45 1   
    15     6    10 ar  
    16     6    46 1   
    17     7    11 1   
    18     7    41 ar  
    19     8    18 ar  
    20     8    20 ar  
    21     8    47 1   
    22     9    12 1   
    23     9    26 1   
    24     9    35 1   
    25     9    48 1   
    26    10    18 ar  
    27    10    49 1   
    28    11    12 1   
    29    12    34 1   
    30    12    50 1   
    31    13    14 ar  
    32    13    19 ar  
    33    13    51 1   
    34    14    27 ar  
    35    14    52 1   
    36    15    17 1   
    37    15    56 1   
    38    15    57 1   
    39    15    79 1   
    40    16    25 1   
    41    16    30 1   
    42    16    58 1   
    43    16    81 1   
    44    17    21 1   
    45    17    32 1   
    46    17    82 1   
    47    18    22 1   
    48    19    36 ar  
    49    20    59 1   
    50    22    83 1   
    51    23    26 1   
    52    23    34 1   
    53    23    60 1   
    54    24    31 1   
    55    24    37 ar  
    56    25    38 1   
    57    25    61 1   
    58    25    62 1   
    59    26    63 1   
    60    26    64 1   
    61    27    39 1   
    62    28    29 1   
    63    28    33 1   
    64    28    65 1   
    65    28    66 1   
    66    29    30 1   
    67    29    40 1   
    68    30    67 1   
    69    30    68 1   
    70    31    33 1   
    71    33    69 1   
    72    33    70 1   
    73    35    42 2   
    74    35    79 1   
    75    35    80 2   
    76    36    71 1   
    77    37    41 ar  
    78    37    72 1   
    79    38    40 1   
    80    38    73 1   
    81    38    74 1   
    82    39    75 1   
    83    40    76 1   
    84    40    77 1   
    85    41    78 1   
    86    53    83 1   
    87    54    83 1   
    88    55    83 1   
@<TRIPOS>SUBSTRUCTURE
     1 7EI         1 TEMP              0 ****  ****    0 ROOT
