@<TRIPOS>MOLECULE
7EI
   83    88     1     0     0
SMALL
abcg2


@<TRIPOS>ATOM
      1 C10          1.4750   -11.1570   -21.3870 ca         1 7EI      -0.174000
      2 C13         -6.3580   -10.0340   -21.7880 ca         1 7EI       0.179000
      3 C15         -0.8440    -8.1820   -21.4290 ce         1 7EI      -0.075400
      4 C17         -2.5390    -8.5550   -18.0990 ca         1 7EI      -0.058500
      5 C20         -2.4070    -8.9850   -16.7900 ca         1 7EI      -0.172000
      6 C21         -5.4890   -11.1220   -21.8300 ca         1 7EI      -0.051000
      7 C22         -1.4210    -8.4010   -18.9340 ca         1 7EI      -0.080800
      8 C24         -7.7270   -11.1890   -20.1700 ca         1 7EI      -0.166500
      9 C26         -3.6640    -8.2080   -21.5850 c5         1 7EI      -0.342700
     10 C28         -5.7280   -12.2340   -21.0430 ca         1 7EI      -0.166500
     11 C01         -1.5770    -7.9620   -20.3160 cf         1 7EI      -0.061400
     12 C02         -2.7870    -7.1680   -20.8040 c5         1 7EI       0.212500
     13 C03          1.3100    -8.6570   -22.5790 ca         1 7EI      -0.056500
     14 C04          2.3930    -9.4770   -22.8550 ca         1 7EI      -0.174000
     15 C06         -6.9310    -8.6130   -23.7550 c3         1 7EI       0.166800
     16 C07          3.3840   -10.8060   -11.5460 c6         1 7EI      -0.075400
     17 C08         -6.3810    -9.2450   -25.0200 c3         1 7EI       0.279000
     18 C09         -6.8480   -12.2740   -20.2050 ca         1 7EI       0.156100
     19 C11          0.3000    -9.0530   -21.6920 ca         1 7EI      -0.077800
     20 C12         -7.4720   -10.0750   -20.9590 ca         1 7EI      -0.051000
     21 F02         -7.1920    -8.9690   -26.0650 f          1 7EI      -0.112333
     22 O01         -7.0000   -13.4010   -19.4670 os         1 7EI      -0.345100
     23 C14         -1.6120    -7.4920   -22.5530 c5         1 7EI       0.183500
     24 C16         -1.1430    -9.2630   -16.2650 ca         1 7EI       0.151100
     25 C18          3.0790   -11.6860   -10.3350 c6         1 7EI      -0.075400
     26 C19         -2.8390    -8.3930   -22.8750 c5         1 7EI      -0.066400
     27 C23          2.4810   -10.7320   -22.2560 ca         1 7EI       0.140100
     28 C25         -0.0940   -10.5250   -12.9970 c3         1 7EI       0.162800
     29 N02          1.0890   -11.1270   -12.3970 n3         1 7EI      -0.726600
     30 C27          2.1180   -10.1360   -12.0680 c6         1 7EI       0.167300
     31 O03         -1.1040    -9.6900   -14.9750 os         1 7EI      -0.357100
     32 F03         -5.1540    -8.7860   -25.3370 f          1 7EI      -0.112333
     33 C29          0.1620   -10.0620   -14.4210 c3         1 7EI       0.161600
     34 O05         -2.2420    -6.3910   -21.8730 os         1 7EI      -0.417000
     35 S01         -5.3220    -7.5930   -21.8550 s6         1 7EI       1.237100
     36 C30          0.4020   -10.3240   -21.1130 ca         1 7EI      -0.056500
     37 C31         -0.0140    -9.0880   -17.0690 ca         1 7EI      -0.172000
     38 C32          1.9500   -12.6610   -10.6650 c6         1 7EI      -0.075400
     39 O06          3.5610   -11.5070   -22.5570 oh         1 7EI      -0.535100
     40 C33          0.7370   -11.9220   -11.2180 c6         1 7EI       0.167300
     41 C34         -0.1620    -8.6610   -18.3800 ca         1 7EI      -0.058500
     42 O04         -5.8910    -7.3590   -20.5450 o          1 7EI      -0.534000
     43 H1           1.5350   -12.1400   -20.9350 ha         1 7EI       0.124000
     44 H3          -3.5320    -8.3530   -18.4810 ha         1 7EI       0.121500
     45 H4          -3.2780    -9.1150   -16.1600 ha         1 7EI       0.125000
     46 H5          -4.6270   -11.0920   -22.4820 ha         1 7EI       0.128000
     47 H6          -8.5990   -11.1970   -19.5330 ha         1 7EI       0.131000
     48 H7          -3.8050    -9.1180   -21.0080 h1         1 7EI       0.110700
     49 H8          -5.0580   -13.0840   -21.0650 ha         1 7EI       0.131000
     50 H10         -3.3070    -6.5470   -20.0820 h1         1 7EI       0.118700
     51 H11          1.2550    -7.6840   -23.0520 ha         1 7EI       0.121000
     52 H12          3.1730    -9.1560   -23.5340 ha         1 7EI       0.124000
     53 H13         -8.0360   -14.4570   -18.0950 h1         1 7EI       0.046033
     54 H14         -8.0860   -12.6950   -17.8320 h1         1 7EI       0.046033
     55 H15         -9.0590   -13.4330   -19.1340 h1         1 7EI       0.046033
     56 H16         -7.0090    -7.5450   -23.9400 h1         1 7EI       0.096200
     57 H17         -7.9330    -9.0100   -23.5920 h1         1 7EI       0.096200
     58 H19          4.1170   -10.0370   -11.2910 hc         1 7EI       0.047200
     59 H20         -8.1440    -9.2270   -20.9240 ha         1 7EI       0.128000
     60 H21         -1.0470    -7.1510   -23.4130 h1         1 7EI       0.105700
     61 H22          3.9740   -12.2270   -10.0170 hc         1 7EI       0.039700
     62 H23          2.7730   -11.0510    -9.4960 hc         1 7EI       0.039700
     63 H24         -3.3650    -8.0120   -23.7460 hc         1 7EI       0.073200
     64 H25         -2.5700    -9.4320   -23.0480 hc         1 7EI       0.073200
     65 H26         -0.4760    -9.6810   -12.3980 h1         1 7EI       0.046200
     66 H27         -0.8810   -11.2820   -13.0280 h1         1 7EI       0.046200
     67 H29          2.3510    -9.5570   -12.9610 h1         1 7EI       0.031200
     68 H30          1.7360    -9.4270   -11.3100 h1         1 7EI       0.031200
     69 H31          0.5980   -10.8780   -15.0050 h1         1 7EI       0.043700
     70 H32          0.8400    -9.2070   -14.4560 h1         1 7EI       0.043700
     71 H33         -0.3750   -10.6670   -20.4440 ha         1 7EI       0.121000
     72 H34          0.9770    -9.2750   -16.6840 ha         1 7EI       0.125000
     73 H35          1.6530   -13.2260    -9.7780 hc         1 7EI       0.047200
     74 H36          2.2940   -13.3830   -11.4120 hc         1 7EI       0.047200
     75 H37          3.5070   -12.3470   -22.0820 ho         1 7EI       0.464000
     76 H38          0.3110   -11.2780   -10.4270 h1         1 7EI       0.031200
     77 H39         -0.0390   -12.6330   -11.5070 h1         1 7EI       0.031200
     78 H40          0.7240    -8.5230   -18.9840 ha         1 7EI       0.121500
     79 N01         -6.0900    -8.8730   -22.5960 nh         1 7EI      -0.789300
     80 O02         -5.3270    -6.5050   -22.8070 o          1 7EI      -0.534000
     81 H18          3.8170   -11.4150   -12.3450 hc         1 7EI       0.047200
     82 F01         -6.2850   -10.5880   -24.9360 f          1 7EI      -0.112333
     83 C05         -8.1190   -13.4890   -18.5820 c3         1 7EI       0.147900
@<TRIPOS>BOND
     1     1    27 ar  
     2     1    36 ar  
     3     1    43 1   
     4     2     6 ar  
     5     2    20 ar  
     6     2    79 1   
     7     3    11 2   
     8     3    19 1   
     9     3    23 1   
    10     4     5 ar  
    11     4     7 ar  
    12     4    44 1   
    13     5    24 ar  
    14     5    45 1   
    15     6    10 ar  
    16     6    46 1   
    17     7    11 1   
    18     7    41 ar  
    19     8    18 ar  
    20     8    20 ar  
    21     8    47 1   
    22     9    12 1   
    23     9    26 1   
    24     9    35 1   
    25     9    48 1   
    26    10    18 ar  
    27    10    49 1   
    28    11    12 1   
    29    12    34 1   
    30    12    50 1   
    31    13    14 ar  
    32    13    19 ar  
    33    13    51 1   
    34    14    27 ar  
    35    14    52 1   
    36    15    17 1   
    37    15    56 1   
    38    15    57 1   
    39    15    79 1   
    40    16    25 1   
    41    16    30 1   
    42    16    58 1   
    43    16    81 1   
    44    17    21 1   
    45    17    32 1   
    46    17    82 1   
    47    18    22 1   
    48    19    36 ar  
    49    20    59 1   
    50    22    83 1   
    51    23    26 1   
    52    23    34 1   
    53    23    60 1   
    54    24    31 1   
    55    24    37 ar  
    56    25    38 1   
    57    25    61 1   
    58    25    62 1   
    59    26    63 1   
    60    26    64 1   
    61    27    39 1   
    62    28    29 1   
    63    28    33 1   
    64    28    65 1   
    65    28    66 1   
    66    29    30 1   
    67    29    40 1   
    68    30    67 1   
    69    30    68 1   
    70    31    33 1   
    71    33    69 1   
    72    33    70 1   
    73    35    42 2   
    74    35    79 1   
    75    35    80 2   
    76    36    71 1   
    77    37    41 ar  
    78    37    72 1   
    79    38    40 1   
    80    38    73 1   
    81    38    74 1   
    82    39    75 1   
    83    40    76 1   
    84    40    77 1   
    85    41    78 1   
    86    53    83 1   
    87    54    83 1   
    88    55    83 1   
@<TRIPOS>SUBSTRUCTURE
     1 7EI         1 TEMP              0 ****  ****    0 ROOT
