@<TRIPOS>MOLECULE
7EJ
   82    85     1     0     0
SMALL
No Charge or Current Charge


@<TRIPOS>ATOM
      1 C4          -3.0690    -3.6730    -0.9060 c3         1 7EJ      -0.080400
      2 C5          -2.9060    -2.3670    -0.0980 c3         1 7EJ      -0.100400
      3 C6          -3.3720    -1.1150    -0.8830 c3         1 7EJ       0.066600
      4 C8          -2.1970     0.9600     0.1040 cc         1 7EJ      -0.225600
      5 C10         -4.0330     1.8660     1.1210 cd         1 7EJ      -0.166000
      6 C13         -6.2870    -0.9700     0.6830 ca         1 7EJ      -0.099000
      7 C15         -8.6230    -0.3250     0.4470 ca         1 7EJ      -0.105000
      8 C17         -6.8660     1.3470     0.2490 ca         1 7EJ      -0.099000
      9 C21         -0.1670     3.2230    -0.4070 c3         1 7EJ       0.109000
     10 C22          0.1990     4.0470     0.8700 c3         1 7EJ      -0.080700
     11 C24          1.7070     4.3710     1.0030 c3         1 7EJ      -0.088100
     12 C1          -2.4130    -7.3150    -0.3930 c3         1 7EJ       0.147900
     13 C3          -2.6010    -4.9210    -0.1320 c3         1 7EJ       0.159600
     14 N7          -3.3350     0.1370    -0.0950 na         1 7EJ       0.051000
     15 C9          -2.6500     1.9830     0.9150 cd         1 7EJ      -0.146000
     16 C11         -4.4620     0.7510     0.4720 cc         1 7EJ      -0.115000
     17 C12         -5.8780     0.3620     0.4650 ca         1 7EJ      -0.017000
     18 C14         -7.6500    -1.3120     0.6720 ca         1 7EJ      -0.112000
     19 C16         -8.2290     1.0060     0.2370 ca         1 7EJ      -0.112000
     20 O19         -0.4750    -0.3680    -0.8180 o          1 7EJ      -0.589100
     21 N20          0.1960     1.7770    -0.3820 n          1 7EJ      -0.399800
     22 C23         -0.6310     5.3520     0.9260 c3         1 7EJ      -0.088100
     23 C25          1.6160     1.4810    -0.7630 c6         1 7EJ       0.113700
     24 C27          1.8250     1.0200    -2.2400 c6         1 7EJ       0.136800
     25 N28          3.2720     0.8850    -2.5690 n7         1 7EJ      -0.870400
     26 C29          3.9880    -0.0460    -1.6600 c6         1 7EJ       0.161800
     27 C30          3.8390     0.3890    -0.1800 c6         1 7EJ      -0.137700
     28 C32          2.3520     0.5640     0.2470 c6         1 7EJ      -0.076400
     29 C33          4.6780    -0.5220     0.7500 c          1 7EJ       0.610100
     30 O34          4.1310    -1.4300     1.3650 o          1 7EJ      -0.595100
     31 N35          6.0920    -0.3860     0.7970 n          1 7EJ      -0.418800
     32 C36          6.7830     0.8840     0.3830 c6         1 7EJ       0.059000
     33 C37          8.3290     0.8010     0.2950 c6         1 7EJ       0.136100
     34 O38          8.8710     0.1240     1.4410 os         1 7EJ      -0.444000
     35 C39          8.4150    -1.2360     1.5280 c6         1 7EJ       0.136100
     36 C40          6.8770    -1.2810     1.7120 c6         1 7EJ       0.059000
     37 H1          -4.1230    -3.7980    -1.1820 hc         1 7EJ       0.050200
     38 H2          -2.4960    -3.5940    -1.8380 hc         1 7EJ       0.050200
     39 H3          -3.4680    -2.4490     0.8390 hc         1 7EJ       0.064700
     40 H4          -1.8560    -2.2530     0.1910 hc         1 7EJ       0.064700
     41 H5          -2.7500    -0.9880    -1.7760 h1         1 7EJ       0.058700
     42 H6          -4.3980    -1.2710    -1.2360 h1         1 7EJ       0.058700
     43 H7          -4.6490     2.5450     1.7030 ha         1 7EJ       0.136000
     44 H8          -5.5550    -1.7440     0.8810 ha         1 7EJ       0.117000
     45 H9          -9.6780    -0.5910     0.4390 ha         1 7EJ       0.114000
     46 H10         -6.5750     2.3800     0.0780 ha         1 7EJ       0.117000
     47 H11         -1.2340     3.3260    -0.6300 h1         1 7EJ       0.049200
     48 H12          0.3380     3.6870    -1.2650 h1         1 7EJ       0.049200
     49 H13         -0.0650     3.4550     1.7540 hc         1 7EJ       0.062700
     50 H14          2.0920     4.8400     0.0890 hc         1 7EJ       0.035033
     51 H15          1.8830     5.0590     1.8390 hc         1 7EJ       0.035033
     52 H16          2.2910     3.4670     1.2070 hc         1 7EJ       0.035033
     53 H17         -1.3430    -7.3110    -0.1440 h1         1 7EJ       0.028700
     54 H18         -2.9830    -7.5130     0.5230 h1         1 7EJ       0.028700
     55 H19         -2.5960    -8.1390    -1.0950 h1         1 7EJ       0.028700
     56 H20         -1.5400    -4.8150     0.1290 h1         1 7EJ       0.023700
     57 H21         -3.1810    -5.0170     0.7960 h1         1 7EJ       0.023700
     58 H22         -2.0640     2.7700     1.3600 ha         1 7EJ       0.138000
     59 H23         -7.9520    -2.3430     0.8430 ha         1 7EJ       0.114000
     60 H24         -8.9800     1.7740     0.0650 ha         1 7EJ       0.114000
     61 H25         -1.7050     5.1370     0.8910 hc         1 7EJ       0.035033
     62 H26         -0.4300     5.9020     1.8530 hc         1 7EJ       0.035033
     63 H27         -0.3850     6.0050     0.0790 hc         1 7EJ       0.035033
     64 H28          2.1560     2.4350    -0.7240 h1         1 7EJ       0.060700
     65 H29          1.3330     0.0530    -2.4150 h1         1 7EJ       0.044700
     66 H30          1.3640     1.7530    -2.9180 h1         1 7EJ       0.044700
     67 H31          3.3650     0.5460    -3.5360 hn         1 7EJ       0.418000
     68 H33          3.5830    -1.0620    -1.7830 h1         1 7EJ       0.041200
     69 H34          5.0520    -0.0800    -1.9380 h1         1 7EJ       0.041200
     70 H35          4.3080     1.3790    -0.1510 hc         1 7EJ       0.066700
     71 H36          2.2930     0.9910     1.2580 hc         1 7EJ       0.077200
     72 H37          1.8640    -0.4180     0.2920 hc         1 7EJ       0.077200
     73 H38          6.4220     1.2030    -0.6040 h1         1 7EJ       0.063200
     74 H39          6.5150     1.6750     1.0980 h1         1 7EJ       0.063200
     75 H40          8.6220     0.2580    -0.6150 h1         1 7EJ       0.052700
     76 H41          8.7540     1.8130     0.2360 h1         1 7EJ       0.052700
     77 H42          8.6980    -1.7720     0.6110 h1         1 7EJ       0.052700
     78 H43          8.9080    -1.7310     2.3770 h1         1 7EJ       0.052700
     79 H44          6.6440    -1.0040     2.7500 h1         1 7EJ       0.063200
     80 H45          6.5470    -2.3210     1.5780 h1         1 7EJ       0.063200
     81 C18         -0.7880     0.7310    -0.3870 c          1 7EJ       0.635700
     82 O2          -2.8050    -6.0630    -0.9800 os         1 7EJ      -0.457000
@<TRIPOS>BOND
     1     1     2 1   
     2     1    13 1   
     3     1    37 1   
     4     1    38 1   
     5     2     3 1   
     6     2    39 1   
     7     2    40 1   
     8     3    14 1   
     9     3    41 1   
    10     3    42 1   
    11     4    14 1   
    12     4    15 2   
    13     4    81 1   
    14     5    15 1   
    15     5    16 2   
    16     5    43 1   
    17     6    17 ar  
    18     6    18 ar  
    19     6    44 1   
    20     7    18 ar  
    21     7    19 ar  
    22     7    45 1   
    23     8    17 ar  
    24     8    19 ar  
    25     8    46 1   
    26     9    10 1   
    27     9    21 1   
    28     9    47 1   
    29     9    48 1   
    30    10    11 1   
    31    10    22 1   
    32    10    49 1   
    33    11    50 1   
    34    11    51 1   
    35    11    52 1   
    36    12    53 1   
    37    12    54 1   
    38    12    55 1   
    39    12    82 1   
    40    13    56 1   
    41    13    57 1   
    42    13    82 1   
    43    14    16 1   
    44    15    58 1   
    45    16    17 1   
    46    18    59 1   
    47    19    60 1   
    48    20    81 2   
    49    21    23 1   
    50    21    81 1   
    51    22    61 1   
    52    22    62 1   
    53    22    63 1   
    54    23    24 1   
    55    23    28 1   
    56    23    64 1   
    57    24    25 1   
    58    24    65 1   
    59    24    66 1   
    60    25    26 1   
    61    25    67 1   
    62    26    27 1   
    63    26    68 1   
    64    26    69 1   
    65    27    28 1   
    66    27    29 1   
    67    27    70 1   
    68    28    71 1   
    69    28    72 1   
    70    29    30 2   
    71    29    31 1   
    72    31    32 1   
    73    31    36 1   
    74    32    33 1   
    75    32    73 1   
    76    32    74 1   
    77    33    34 1   
    78    33    75 1   
    79    33    76 1   
    80    34    35 1   
    81    35    36 1   
    82    35    77 1   
    83    35    78 1   
    84    36    79 1   
    85    36    80 1   
@<TRIPOS>SUBSTRUCTURE
     1 7EJ         1 TEMP              0 ****  ****    0 ROOT
