@<TRIPOS>MOLECULE
7EJ
   82    85     1     0     0
SMALL
abcg2


@<TRIPOS>ATOM
      1 C4          -3.0050    -2.9660    -1.4310 c3         1 7EJ      -0.080400
      2 C5          -2.7510    -2.1290    -0.1840 c3         1 7EJ      -0.100400
      3 C6          -3.0050    -0.6520    -0.4640 c3         1 7EJ       0.066600
      4 C8          -1.8930     0.7300     1.2920 cc         1 7EJ      -0.225600
      5 C10         -3.6880     1.5540     2.3400 cd         1 7EJ      -0.166000
      6 C13         -5.9800    -0.8810     0.7470 ca         1 7EJ      -0.099000
      7 C15         -8.1920    -0.0430     0.2990 ca         1 7EJ      -0.105000
      8 C17         -6.4080     1.4770     0.8470 ca         1 7EJ      -0.099000
      9 C21         -0.4800     2.3550    -0.5060 c3         1 7EJ       0.109000
     10 C22         -0.3830     3.6760     0.2550 c3         1 7EJ      -0.080700
     11 C24          1.0520     4.1350     0.4830 c3         1 7EJ      -0.088100
     12 C1          -2.7400    -6.5400    -2.1920 c3         1 7EJ       0.147900
     13 C3          -2.7130    -4.4320    -1.1850 c3         1 7EJ       0.159600
     14 N7          -3.0110     0.1920     0.7190 na         1 7EJ       0.051000
     15 C9          -2.2790     1.5680     2.3090 cd         1 7EJ      -0.146000
     16 C11         -4.1220     0.7040     1.3470 cc         1 7EJ      -0.115000
     17 C12         -5.5070     0.4150     0.9640 ca         1 7EJ      -0.017000
     18 C14         -7.3060    -1.1070     0.4110 ca         1 7EJ      -0.112000
     19 C16         -7.7380     1.2500     0.5240 ca         1 7EJ      -0.112000
     20 O19         -0.0610    -0.7390     1.2700 o          1 7EJ      -0.589100
     21 N20          0.1740     1.2080     0.1220 n          1 7EJ      -0.399800
     22 C23         -1.1760     4.7350    -0.5040 c3         1 7EJ      -0.088100
     23 C25          1.5530     0.9350    -0.2960 c6         1 7EJ       0.113700
     24 C27          1.6290    -0.1520    -1.3690 c6         1 7EJ       0.136800
     25 N28          2.9940    -0.2120    -1.8590 n7         1 7EJ      -0.870400
     26 C29          3.9300    -0.5860    -0.8170 c6         1 7EJ       0.161800
     27 C30          3.9340     0.4920     0.2730 c6         1 7EJ      -0.137700
     28 C32          2.5250     0.6420     0.8470 c6         1 7EJ      -0.076400
     29 C33          4.9310     0.1240     1.3610 c          1 7EJ       0.610100
     30 O34          4.5590    -0.4360     2.3850 o          1 7EJ      -0.595100
     31 N35          6.2370     0.3990     1.1400 n          1 7EJ      -0.418800
     32 C36          6.8000     1.1000    -0.0020 c6         1 7EJ       0.059000
     33 C37          7.9540     0.3000    -0.5840 c6         1 7EJ       0.136100
     34 O38          8.9290     0.0010     0.3860 os         1 7EJ      -0.444000
     35 C39          8.3720    -0.7200     1.4630 c6         1 7EJ       0.136100
     36 C40          7.2470     0.0520     2.1270 c6         1 7EJ       0.059000
     37 H1          -4.0470    -2.8490    -1.7470 hc         1 7EJ       0.050200
     38 H2          -2.3820    -2.6020    -2.2550 hc         1 7EJ       0.050200
     39 H3          -3.3970    -2.4690     0.6300 hc         1 7EJ       0.064700
     40 H4          -1.7260    -2.2710     0.1600 hc         1 7EJ       0.064700
     41 H5          -2.2500    -0.2700    -1.1570 h1         1 7EJ       0.058700
     42 H6          -3.9640    -0.5260    -0.9670 h1         1 7EJ       0.058700
     43 H7          -4.3270     2.0900     3.0250 ha         1 7EJ       0.136000
     44 H8          -5.3180    -1.7290     0.8680 ha         1 7EJ       0.117000
     45 H9          -9.2270    -0.2210     0.0400 ha         1 7EJ       0.114000
     46 H10         -6.0580     2.4900     0.9980 ha         1 7EJ       0.117000
     47 H11         -1.5320     2.1230    -0.6750 h1         1 7EJ       0.049200
     48 H12         -0.0410     2.4790    -1.5010 h1         1 7EJ       0.049200
     49 H13         -0.8580     3.5300     1.2290 hc         1 7EJ       0.062700
     50 H14          1.5830     4.2630    -0.4630 hc         1 7EJ       0.035033
     51 H15          1.0670     5.0960     1.0010 hc         1 7EJ       0.035033
     52 H16          1.6170     3.4320     1.0970 hc         1 7EJ       0.035033
     53 H17         -1.6980    -6.7510    -1.9230 h1         1 7EJ       0.028700
     54 H18         -3.3800    -6.9760    -1.4150 h1         1 7EJ       0.028700
     55 H19         -2.9600    -7.0370    -3.1370 h1         1 7EJ       0.028700
     56 H20         -1.6640    -4.5560    -0.8750 h1         1 7EJ       0.023700
     57 H21         -3.3300    -4.8000    -0.3510 h1         1 7EJ       0.023700
     58 H22         -1.6170     2.1160     2.9600 ha         1 7EJ       0.138000
     59 H23         -7.6500    -2.1200     0.2480 ha         1 7EJ       0.114000
     60 H24         -8.4180     2.0880     0.4370 ha         1 7EJ       0.114000
     61 H25         -2.2050     4.4170    -0.6790 hc         1 7EJ       0.035033
     62 H26         -1.2090     5.6710     0.0540 hc         1 7EJ       0.035033
     63 H27         -0.7230     4.9460    -1.4760 hc         1 7EJ       0.035033
     64 H28          1.8940     1.8580    -0.7700 h1         1 7EJ       0.060700
     65 H29          1.2830    -1.1090    -0.9530 h1         1 7EJ       0.044700
     66 H30          0.9690     0.1070    -2.1990 h1         1 7EJ       0.044700
     67 H31          3.0530    -0.8770    -2.6190 hn         1 7EJ       0.418000
     68 H33          3.6870    -1.5530    -0.3490 h1         1 7EJ       0.041200
     69 H34          4.9210    -0.6900    -1.2650 h1         1 7EJ       0.041200
     70 H35          4.2150     1.4420    -0.1900 hc         1 7EJ       0.066700
     71 H36          2.4940     1.4540     1.5780 hc         1 7EJ       0.077200
     72 H37          2.2430    -0.2730     1.3610 hc         1 7EJ       0.077200
     73 H38          6.0600     1.2560    -0.7820 h1         1 7EJ       0.063200
     74 H39          7.1530     2.0860     0.3180 h1         1 7EJ       0.063200
     75 H40          7.5620    -0.6240    -1.0340 h1         1 7EJ       0.052700
     76 H41          8.4370     0.8800    -1.3710 h1         1 7EJ       0.052700
     77 H42          7.9910    -1.6920     1.1200 h1         1 7EJ       0.052700
     78 H43          9.1710    -0.9030     2.1820 h1         1 7EJ       0.052700
     79 H44          7.6390     0.9700     2.5790 h1         1 7EJ       0.063200
     80 H45          6.8040    -0.5470     2.9180 h1         1 7EJ       0.063200
     81 C18         -0.5120     0.3320     0.8840 c          1 7EJ       0.635700
     82 O2          -2.9740    -5.1650    -2.3560 os         1 7EJ      -0.457000
@<TRIPOS>BOND
     1     1     2 1   
     2     1    13 1   
     3     1    37 1   
     4     1    38 1   
     5     2     3 1   
     6     2    39 1   
     7     2    40 1   
     8     3    14 1   
     9     3    41 1   
    10     3    42 1   
    11     4    14 1   
    12     4    15 2   
    13     4    81 1   
    14     5    15 1   
    15     5    16 2   
    16     5    43 1   
    17     6    17 ar  
    18     6    18 ar  
    19     6    44 1   
    20     7    18 ar  
    21     7    19 ar  
    22     7    45 1   
    23     8    17 ar  
    24     8    19 ar  
    25     8    46 1   
    26     9    10 1   
    27     9    21 1   
    28     9    47 1   
    29     9    48 1   
    30    10    11 1   
    31    10    22 1   
    32    10    49 1   
    33    11    50 1   
    34    11    51 1   
    35    11    52 1   
    36    12    53 1   
    37    12    54 1   
    38    12    55 1   
    39    12    82 1   
    40    13    56 1   
    41    13    57 1   
    42    13    82 1   
    43    14    16 1   
    44    15    58 1   
    45    16    17 1   
    46    18    59 1   
    47    19    60 1   
    48    20    81 2   
    49    21    23 1   
    50    21    81 1   
    51    22    61 1   
    52    22    62 1   
    53    22    63 1   
    54    23    24 1   
    55    23    28 1   
    56    23    64 1   
    57    24    25 1   
    58    24    65 1   
    59    24    66 1   
    60    25    26 1   
    61    25    67 1   
    62    26    27 1   
    63    26    68 1   
    64    26    69 1   
    65    27    28 1   
    66    27    29 1   
    67    27    70 1   
    68    28    71 1   
    69    28    72 1   
    70    29    30 2   
    71    29    31 1   
    72    31    32 1   
    73    31    36 1   
    74    32    33 1   
    75    32    73 1   
    76    32    74 1   
    77    33    34 1   
    78    33    75 1   
    79    33    76 1   
    80    34    35 1   
    81    35    36 1   
    82    35    77 1   
    83    35    78 1   
    84    36    79 1   
    85    36    80 1   
@<TRIPOS>SUBSTRUCTURE
     1 7EJ         1 TEMP              0 ****  ****    0 ROOT
