@<TRIPOS>MOLECULE
7EK
   80    83     1     0     0
SMALL
No Charge or Current Charge


@<TRIPOS>ATOM
      1 C4          -3.0180     3.4700     0.9660 c3         1 7EK      -0.079400
      2 C5          -2.9750     2.0950     0.2650 c3         1 7EK      -0.069400
      3 C6          -3.3320     0.9220     1.2030 c3         1 7EK      -0.016100
      4 C7          -3.2960    -0.4190     0.4970 cc         1 7EK      -0.098300
      5 C8          -2.2800    -1.3330     0.2380 cd         1 7EK       0.139500
      6 C13         -6.0490     0.3490    -1.1960 ca         1 7EK      -0.090000
      7 C15         -8.2470     0.6470    -0.1930 ca         1 7EK      -0.095000
      8 C17         -6.5800    -0.7400     0.9170 ca         1 7EK      -0.090000
      9 C21         -0.0230    -3.4140    -0.1720 c3         1 7EK       0.098000
     10 C22          0.3900    -3.5530    -1.6660 c3         1 7EK      -0.081700
     11 C24          0.2080    -5.0060    -2.1580 c3         1 7EK      -0.087600
     12 C1          -2.4310     7.0400     0.0330 c3         1 7EK       0.148900
     13 O2          -2.7400     5.8520     0.7820 os         1 7EK      -0.453000
     14 C3          -2.6620     4.6350     0.0230 c3         1 7EK       0.160600
     15 N9          -2.8520    -2.3990    -0.4640 nd         1 7EK      -0.347000
     16 N10         -4.1270    -2.2070    -0.6580 nc         1 7EK      -0.185800
     17 N11         -4.3830    -1.0210    -0.0790 na         1 7EK       0.206000
     18 C12         -5.6650    -0.4780    -0.1220 ca         1 7EK      -0.010200
     19 C14         -7.3370     0.9100    -1.2310 ca         1 7EK      -0.103500
     20 C16         -7.8690    -0.1780     0.8810 ca         1 7EK      -0.103500
     21 C18         -0.8320    -1.0930     0.6680 c          1 7EK       0.550600
     22 O19         -0.5210    -0.0550     1.2420 o          1 7EK      -0.614100
     23 N20          0.2040    -2.0590     0.4060 n          1 7EK      -0.388800
     24 C23         -0.3170    -2.5540    -2.6130 c3         1 7EK      -0.087600
     25 C25          1.6350    -1.7680     0.7480 c6         1 7EK       0.113700
     26 C27          1.9230    -1.5970     2.2720 c6         1 7EK       0.141800
     27 N28          3.3810    -1.4400     2.5400 n7         1 7EK      -0.871400
     28 C29          3.9870    -0.3060     1.7970 c6         1 7EK       0.161800
     29 C30          3.7640    -0.4530     0.2710 c6         1 7EK      -0.136700
     30 C31          2.2630    -0.6320    -0.1030 c6         1 7EK      -0.081400
     31 C32          4.4970     0.6700    -0.5040 c          1 7EK       0.611100
     32 O33          3.8690     1.6450    -0.9000 o          1 7EK      -0.598100
     33 N34          5.9100     0.6320    -0.6490 n          1 7EK      -0.418800
     34 C35          6.5900     1.7340    -1.4110 c6         1 7EK       0.059000
     35 C36          8.1360     1.7490    -1.3190 c6         1 7EK       0.135600
     36 O37          8.6650     0.4290    -1.5260 os         1 7EK      -0.445000
     37 C38          8.2310    -0.4910    -0.5100 c6         1 7EK       0.135600
     38 C39          6.6880    -0.6490    -0.5330 c6         1 7EK       0.059000
     39 H1          -4.0230     3.6370     1.3760 hc         1 7EK       0.056200
     40 H2          -2.3190     3.4680     1.8110 hc         1 7EK       0.056200
     41 H3          -3.6710     2.1010    -0.5830 hc         1 7EK       0.044200
     42 H4          -1.9720     1.9330    -0.1500 hc         1 7EK       0.044200
     43 H5          -2.6630     0.9220     2.0710 hc         1 7EK       0.074200
     44 H6          -4.3320     1.0990     1.6190 hc         1 7EK       0.074200
     45 H7          -5.3470     0.5560    -2.0020 ha         1 7EK       0.132000
     46 H8          -9.2440     1.0820    -0.2200 ha         1 7EK       0.120000
     47 H9          -6.2910    -1.3760     1.7510 ha         1 7EK       0.132000
     48 H10         -1.0360    -3.7810    -0.0020 h1         1 7EK       0.068200
     49 H11          0.5990    -4.1160     0.3990 h1         1 7EK       0.068200
     50 H12          1.4630    -3.3330    -1.7240 hc         1 7EK       0.045700
     51 H13         -0.8490    -5.2990    -2.1280 hc         1 7EK       0.035033
     52 H14          0.5660    -5.1150    -3.1890 hc         1 7EK       0.035033
     53 H15          0.7750    -5.7030    -1.5280 hc         1 7EK       0.035033
     54 H16         -1.4090     6.9960    -0.3640 h1         1 7EK       0.027033
     55 H17         -3.1270     7.1620    -0.8080 h1         1 7EK       0.027033
     56 H18         -2.5110     7.9260     0.6750 h1         1 7EK       0.027033
     57 H19         -1.6490     4.4890    -0.3750 h1         1 7EK       0.020200
     58 H20         -3.3680     4.6560    -0.8180 h1         1 7EK       0.020200
     59 H21         -7.6300     1.5490    -2.0620 ha         1 7EK       0.123000
     60 H22         -8.5730    -0.3810     1.6850 ha         1 7EK       0.123000
     61 H23          0.1170    -2.6100    -3.6190 hc         1 7EK       0.035033
     62 H24         -1.3860    -2.7790    -2.7000 hc         1 7EK       0.035033
     63 H25         -0.2040    -1.5220    -2.2600 hc         1 7EK       0.035033
     64 H26          2.2100    -2.6640     0.4700 h1         1 7EK       0.057700
     65 H27          1.3920    -0.7170     2.6620 h1         1 7EK       0.052700
     66 H28          1.5440    -2.4770     2.8120 h1         1 7EK       0.052700
     67 H29          3.5220    -1.2920     3.5490 hn         1 7EK       0.419000
     68 H31          3.5390     0.6390     2.1410 h1         1 7EK       0.040200
     69 H32          5.0630    -0.2600     2.0180 h1         1 7EK       0.040200
     70 H33          4.2780    -1.3880     0.0220 hc         1 7EK       0.067700
     71 H34          2.1630    -0.8620    -1.1720 hc         1 7EK       0.071200
     72 H35          1.7280     0.3110     0.0690 hc         1 7EK       0.071200
     73 H36          6.3060     1.6480    -2.4690 h1         1 7EK       0.063700
     74 H37          6.2160     2.7060    -1.0580 h1         1 7EK       0.063700
     75 H38          8.5490     2.4290    -2.0770 h1         1 7EK       0.053450
     76 H39          8.4490     2.1140    -0.3300 h1         1 7EK       0.053450
     77 H40          8.7100    -1.4660    -0.6740 h1         1 7EK       0.053450
     78 H41          8.5530    -0.1180     0.4740 h1         1 7EK       0.053450
     79 H42          6.4060    -1.1780     0.3870 h1         1 7EK       0.063700
     80 H43          6.4160    -1.3000    -1.3770 h1         1 7EK       0.063700
@<TRIPOS>BOND
     1     1     2 1   
     2     1    14 1   
     3     1    39 1   
     4     1    40 1   
     5     2     3 1   
     6     2    41 1   
     7     2    42 1   
     8     3     4 1   
     9     3    43 1   
    10     3    44 1   
    11     4     5 2   
    12     4    17 1   
    13     5    15 1   
    14     5    21 1   
    15     6    18 ar  
    16     6    19 ar  
    17     6    45 1   
    18     7    19 ar  
    19     7    20 ar  
    20     7    46 1   
    21     8    18 ar  
    22     8    20 ar  
    23     8    47 1   
    24     9    10 1   
    25     9    23 1   
    26     9    48 1   
    27     9    49 1   
    28    10    11 1   
    29    10    24 1   
    30    10    50 1   
    31    11    51 1   
    32    11    52 1   
    33    11    53 1   
    34    12    13 1   
    35    12    54 1   
    36    12    55 1   
    37    12    56 1   
    38    13    14 1   
    39    14    57 1   
    40    14    58 1   
    41    15    16 2   
    42    16    17 1   
    43    17    18 1   
    44    19    59 1   
    45    20    60 1   
    46    21    22 2   
    47    21    23 1   
    48    23    25 1   
    49    24    61 1   
    50    24    62 1   
    51    24    63 1   
    52    25    26 1   
    53    25    30 1   
    54    25    64 1   
    55    26    27 1   
    56    26    65 1   
    57    26    66 1   
    58    27    28 1   
    59    27    67 1   
    60    28    29 1   
    61    28    68 1   
    62    28    69 1   
    63    29    30 1   
    64    29    31 1   
    65    29    70 1   
    66    30    71 1   
    67    30    72 1   
    68    31    32 2   
    69    31    33 1   
    70    33    34 1   
    71    33    38 1   
    72    34    35 1   
    73    34    73 1   
    74    34    74 1   
    75    35    36 1   
    76    35    75 1   
    77    35    76 1   
    78    36    37 1   
    79    37    38 1   
    80    37    77 1   
    81    37    78 1   
    82    38    79 1   
    83    38    80 1   
@<TRIPOS>SUBSTRUCTURE
     1 7EK         1 TEMP              0 ****  ****    0 ROOT
