@<TRIPOS>MOLECULE
7EK
   80    83     1     0     0
SMALL
bcc


@<TRIPOS>ATOM
      1 C4          -2.0320     3.0130     0.1440 c3         1 7EK      -0.079400
      2 C5          -2.3430     1.5400    -0.0780 c3         1 7EK      -0.069400
      3 C6          -2.9630     0.8910     1.1610 c3         1 7EK      -0.016100
      4 C7          -3.1490    -0.5750     0.9840 cc         1 7EK      -0.112900
      5 C8          -2.2550    -1.6260     0.9220 cd         1 7EK       0.204800
      6 C13         -6.2360    -0.5360    -0.6060 ca         1 7EK      -0.108000
      7 C15         -8.1140     0.5800     0.4030 ca         1 7EK      -0.113000
      8 C17         -6.2310    -0.0490     1.7630 ca         1 7EK      -0.108000
      9 C21         -0.2540    -3.2260    -0.5420 c3         1 7EK       0.098000
     10 C22         -0.1270    -2.7610    -1.9940 c3         1 7EK      -0.081700
     11 C24         -0.3980    -3.9500    -2.9110 c3         1 7EK      -0.087600
     12 C1          -0.5020     5.6230    -1.9260 c3         1 7EK       0.125700
     13 O2          -1.1020     4.9850    -0.8290 os         1 7EK      -0.406600
     14 C3          -1.4210     3.6410    -1.0930 c3         1 7EK       0.137400
     15 N9          -2.9500    -2.7590     0.6780 nd         1 7EK      -0.347000
     16 N10         -4.1960    -2.4850     0.5730 nc         1 7EK      -0.185800
     17 N11         -4.3340    -1.1710     0.7460 na         1 7EK       0.155300
     18 C12         -5.6180    -0.5750     0.6350 ca         1 7EK      -0.010200
     19 C14         -7.4920     0.0420    -0.7170 ca         1 7EK      -0.121500
     20 C16         -7.4840     0.5350     1.6400 ca         1 7EK      -0.121500
     21 C18         -0.7900    -1.4810     1.1510 c          1 7EK       0.617600
     22 O19         -0.4470    -0.6350     1.9710 o          1 7EK      -0.614100
     23 N20          0.0960    -2.2110     0.4450 n          1 7EK      -0.455800
     24 C23         -1.0590    -1.5980    -2.3070 c3         1 7EK      -0.087600
     25 C25          1.5340    -1.9600     0.5850 c6         1 7EK       0.113700
     26 C27          2.0900    -2.3570     1.9520 c6         1 7EK       0.141800
     27 N28          3.5380    -2.2430     1.9000 n7         1 7EK      -0.816200
     28 C29          3.9640    -0.8790     1.6540 c6         1 7EK       0.161800
     29 C30          3.4830    -0.4410     0.2650 c6         1 7EK      -0.136700
     30 C31          1.9600    -0.5430     0.1990 c6         1 7EK      -0.081400
     31 C32          3.9510     0.9780    -0.0190 c          1 7EK       0.678100
     32 O33          3.2070     1.9320     0.1700 o          1 7EK      -0.598100
     33 N34          5.2240     1.1490    -0.4470 n          1 7EK      -0.485800
     34 C35          5.7590     2.4800    -0.6830 c6         1 7EK       0.059000
     35 C36          7.0530     2.6590     0.0910 c6         1 7EK       0.112400
     36 O37          7.9930     1.6580    -0.2330 os         1 7EK      -0.398600
     37 C38          7.4790     0.3730     0.0330 c6         1 7EK       0.112400
     38 C39          6.1960     0.1090    -0.7370 c6         1 7EK       0.059000
     39 H1          -2.9470     3.5490     0.4150 hc         1 7EK       0.056200
     40 H2          -1.3380     3.1160     0.9830 hc         1 7EK       0.056200
     41 H3          -3.0220     1.4230    -0.9280 hc         1 7EK       0.044200
     42 H4          -1.4220     1.0120    -0.3420 hc         1 7EK       0.044200
     43 H5          -2.3190     1.0560     2.0230 hc         1 7EK       0.074200
     44 H6          -3.9200     1.3670     1.3820 hc         1 7EK       0.074200
     45 H7          -5.7390    -0.9480    -1.4750 ha         1 7EK       0.150000
     46 H8          -9.0900     1.0360     0.3100 ha         1 7EK       0.138000
     47 H9          -5.7400    -0.1030     2.7260 ha         1 7EK       0.150000
     48 H10         -1.2630    -3.5860    -0.3620 h1         1 7EK       0.068200
     49 H11          0.4090    -4.0790    -0.3760 h1         1 7EK       0.068200
     50 H12          0.9050    -2.4350    -2.1690 hc         1 7EK       0.045700
     51 H13         -1.4160    -4.3250    -2.7770 hc         1 7EK       0.035033
     52 H14         -0.2830    -3.6720    -3.9590 hc         1 7EK       0.035033
     53 H15          0.2890    -4.7740    -2.7080 hc         1 7EK       0.035033
     54 H16          0.4250     5.1250    -2.2350 h1         1 7EK       0.027033
     55 H17         -1.1670     5.6610    -2.7980 h1         1 7EK       0.027033
     56 H18         -0.2620     6.6450    -1.6340 h1         1 7EK       0.027033
     57 H19         -0.5200     3.0810    -1.3870 h1         1 7EK       0.020200
     58 H20         -2.1240     3.5680    -1.9370 h1         1 7EK       0.020200
     59 H21         -7.9810     0.0790    -1.6810 ha         1 7EK       0.141000
     60 H22         -7.9680     0.9500     2.5140 ha         1 7EK       0.141000
     61 H23         -0.9680    -1.2970    -3.3520 hc         1 7EK       0.035033
     62 H24         -2.1030    -1.8660    -2.1260 hc         1 7EK       0.035033
     63 H25         -0.8330    -0.7210    -1.7000 hc         1 7EK       0.035033
     64 H26          2.0050    -2.6390    -0.1330 h1         1 7EK       0.057700
     65 H27          1.6460    -1.7320     2.7370 h1         1 7EK       0.052700
     66 H28          1.8250    -3.3950     2.1630 h1         1 7EK       0.052700
     67 H29          3.9340    -2.5660     2.7720 hn         1 7EK       0.363800
     68 H31          3.5720    -0.1660     2.3970 h1         1 7EK       0.040200
     69 H32          5.0540    -0.8400     1.7190 h1         1 7EK       0.040200
     70 H33          3.9030    -1.1340    -0.4690 hc         1 7EK       0.067700
     71 H34          1.6070    -0.3150    -0.8100 hc         1 7EK       0.071200
     72 H35          1.5140     0.1860     0.8710 hc         1 7EK       0.071200
     73 H36          5.9430     2.6110    -1.7550 h1         1 7EK       0.063700
     74 H37          5.0350     3.2300    -0.3760 h1         1 7EK       0.063700
     75 H38          7.5020     3.6220    -0.1560 h1         1 7EK       0.053450
     76 H39          6.8360     2.6500     1.1680 h1         1 7EK       0.053450
     77 H40          8.2390    -0.3520    -0.2600 h1         1 7EK       0.053450
     78 H41          7.2880     0.2500     1.1090 h1         1 7EK       0.053450
     79 H42          5.8250    -0.8770    -0.4700 h1         1 7EK       0.063700
     80 H43          6.4020     0.1000    -1.8120 h1         1 7EK       0.063700
@<TRIPOS>BOND
     1     1     2 1   
     2     1    14 1   
     3     1    39 1   
     4     1    40 1   
     5     2     3 1   
     6     2    41 1   
     7     2    42 1   
     8     3     4 1   
     9     3    43 1   
    10     3    44 1   
    11     4     5 2   
    12     4    17 1   
    13     5    15 1   
    14     5    21 1   
    15     6    18 ar  
    16     6    19 ar  
    17     6    45 1   
    18     7    19 ar  
    19     7    20 ar  
    20     7    46 1   
    21     8    18 ar  
    22     8    20 ar  
    23     8    47 1   
    24     9    10 1   
    25     9    23 1   
    26     9    48 1   
    27     9    49 1   
    28    10    11 1   
    29    10    24 1   
    30    10    50 1   
    31    11    51 1   
    32    11    52 1   
    33    11    53 1   
    34    12    13 1   
    35    12    54 1   
    36    12    55 1   
    37    12    56 1   
    38    13    14 1   
    39    14    57 1   
    40    14    58 1   
    41    15    16 2   
    42    16    17 1   
    43    17    18 1   
    44    19    59 1   
    45    20    60 1   
    46    21    22 2   
    47    21    23 1   
    48    23    25 1   
    49    24    61 1   
    50    24    62 1   
    51    24    63 1   
    52    25    26 1   
    53    25    30 1   
    54    25    64 1   
    55    26    27 1   
    56    26    65 1   
    57    26    66 1   
    58    27    28 1   
    59    27    67 1   
    60    28    29 1   
    61    28    68 1   
    62    28    69 1   
    63    29    30 1   
    64    29    31 1   
    65    29    70 1   
    66    30    71 1   
    67    30    72 1   
    68    31    32 2   
    69    31    33 1   
    70    33    34 1   
    71    33    38 1   
    72    34    35 1   
    73    34    73 1   
    74    34    74 1   
    75    35    36 1   
    76    35    75 1   
    77    35    76 1   
    78    36    37 1   
    79    37    38 1   
    80    37    77 1   
    81    37    78 1   
    82    38    79 1   
    83    38    80 1   
@<TRIPOS>SUBSTRUCTURE
     1 7EK         1 TEMP              0 ****  ****    0 ROOT
