@<TRIPOS>MOLECULE
7EL
   28    29     1     0     0
SMALL
bcc


@<TRIPOS>ATOM
      1 O01          5.9320     0.4000     0.0180 oh         1 7EL      -0.493100
      2 C02          4.5860     0.3920     0.0670 ca         1 7EL       0.149100
      3 C03          3.8970     1.2070    -0.8290 ca         1 7EL      -0.198500
      4 C04          2.5130     1.2330    -0.8130 ca         1 7EL      -0.064000
      5 C05          1.7830     0.4470     0.0770 cp         1 7EL      -0.090000
      6 C06          0.3080     0.5290     0.0970 cp         1 7EL       0.045000
      7 C07         -0.5130    -0.5860    -0.0500 ca         1 7EL      -0.029600
      8 CL           0.1570    -2.1570    -0.3240 cl         1 7EL      -0.083400
      9 C09         -1.9070    -0.4900    -0.0260 ca         1 7EL       0.206100
     10 O10         -2.6190    -1.6020    -0.1830 oh         1 7EL      -0.486100
     11 C11         -2.4990     0.7740     0.1530 ca         1 7EL      -0.258900
     12 C12         -3.9420     0.9540     0.1890 ce         1 7EL       0.462800
     13 N13         -4.7250    -0.0380     0.0390 n2         1 7EL      -0.498200
     14 O14         -6.0410     0.2820     0.0970 oh         1 7EL      -0.357500
     15 C15         -1.6760     1.8900     0.2890 ca         1 7EL      -0.058000
     16 C16         -0.3020     1.7750     0.2610 ca         1 7EL      -0.170000
     17 C17          2.4860    -0.3610     0.9680 ca         1 7EL      -0.064000
     18 C18          3.8700    -0.3890     0.9710 ca         1 7EL      -0.198500
     19 H1           6.2970    -0.1920     0.6840 ho         1 7EL       0.427000
     20 H2           4.4470     1.8150    -1.5360 ha         1 7EL       0.141500
     21 H3           1.9930     1.8700    -1.5180 ha         1 7EL       0.138000
     22 H4          -3.5750    -1.3770    -0.1520 ho         1 7EL       0.471000
     23 H5          -4.3230     1.9630     0.3470 h4         1 7EL       0.013800
     24 H6          -6.5020    -0.5500    -0.0560 ho         1 7EL       0.434000
     25 H7          -2.1290     2.8640     0.4290 ha         1 7EL       0.135000
     26 H8           0.3170     2.6530     0.3860 ha         1 7EL       0.144000
     27 H9           1.9510    -0.9650     1.6900 ha         1 7EL       0.138000
     28 H10          4.3900    -1.0180     1.6840 ha         1 7EL       0.141500
@<TRIPOS>BOND
     1     1     2 1   
     2     1    19 1   
     3     2     3 ar  
     4     2    18 ar  
     5     3     4 ar  
     6     3    20 1   
     7     4     5 ar  
     8     4    21 1   
     9     5     6 1   
    10     5    17 ar  
    11     6     7 ar  
    12     6    16 ar  
    13     7     8 1   
    14     7     9 ar  
    15     9    10 1   
    16     9    11 ar  
    17    10    22 1   
    18    11    12 1   
    19    11    15 ar  
    20    12    13 2   
    21    12    23 1   
    22    13    14 1   
    23    14    24 1   
    24    15    16 ar  
    25    15    25 1   
    26    16    26 1   
    27    17    18 ar  
    28    17    27 1   
    29    18    28 1   
@<TRIPOS>SUBSTRUCTURE
     1 7EL         1 TEMP              0 ****  ****    0 ROOT
