@<TRIPOS>MOLECULE
7EL
   28    29     1     0     0
SMALL
No Charge or Current Charge


@<TRIPOS>ATOM
      1 O01          6.0170     0.3840     0.0440 oh         1 7EL      -0.532100
      2 C02          4.6550     0.4090     0.0610 ca         1 7EL       0.149100
      3 C03          3.9660     1.2460    -0.8270 ca         1 7EL      -0.180500
      4 C04          2.5610     1.2800    -0.8180 ca         1 7EL      -0.046000
      5 C05          1.8200     0.4690     0.0770 cp         1 7EL      -0.090000
      6 C06          0.3270     0.5250     0.0900 cp         1 7EL       0.045000
      7 C07         -0.4870    -0.6310    -0.0570 ca         1 7EL       0.062000
      8 Cl           0.2510    -2.2220    -0.3240 cl         1 7EL      -0.175000
      9 C09         -1.8990    -0.5260    -0.0320 ca         1 7EL       0.206100
     10 O10         -2.6520    -1.6580    -0.1790 oh         1 7EL      -0.525100
     11 C11         -2.5240     0.7360     0.1370 ca         1 7EL      -0.258900
     12 C12         -4.0100     0.9430     0.1770 ce         1 7EL       0.462800
     13 N13         -4.8610    -0.0390     0.0550 n2         1 7EL      -0.399700
     14 O14         -6.2170     0.3410     0.1160 oh         1 7EL      -0.495000
     15 C15         -1.7110     1.8790     0.2710 ca         1 7EL      -0.040000
     16 C16         -0.3140     1.7740     0.2450 ca         1 7EL      -0.152000
     17 C17          2.5360    -0.3610     0.9750 ca         1 7EL      -0.046000
     18 C18          3.9420    -0.3940     0.9640 ca         1 7EL      -0.180500
     19 H1           6.3230    -0.2510     0.7260 ho         1 7EL       0.466000
     20 H2           4.5190     1.8710    -1.5240 ha         1 7EL       0.123500
     21 H3           2.0370     1.9340    -1.5120 ha         1 7EL       0.120000
     22 H4          -3.5980    -1.3820    -0.1360 ho         1 7EL       0.510000
     23 H5          -4.3530     1.9720     0.3130 h4         1 7EL       0.013800
     24 H6          -6.7370    -0.4950     0.0110 ho         1 7EL       0.473000
     25 H7          -2.1630     2.8620     0.3980 ha         1 7EL       0.117000
     26 H8           0.2870     2.6730     0.3570 ha         1 7EL       0.126000
     27 H9           1.9940    -0.9780     1.6890 ha         1 7EL       0.120000
     28 H10          4.4670    -1.0410     1.6620 ha         1 7EL       0.123500
@<TRIPOS>BOND
     1     1     2 1   
     2     1    19 1   
     3     2     3 ar  
     4     2    18 ar  
     5     3     4 ar  
     6     3    20 1   
     7     4     5 ar  
     8     4    21 1   
     9     5     6 1   
    10     5    17 ar  
    11     6     7 ar  
    12     6    16 ar  
    13     7     8 1   
    14     7     9 ar  
    15     9    10 1   
    16     9    11 ar  
    17    10    22 1   
    18    11    12 1   
    19    11    15 ar  
    20    12    13 2   
    21    12    23 1   
    22    13    14 1   
    23    14    24 1   
    24    15    16 ar  
    25    15    25 1   
    26    16    26 1   
    27    17    18 ar  
    28    17    27 1   
    29    18    28 1   
@<TRIPOS>SUBSTRUCTURE
     1 7EL         1 TEMP              0 ****  ****    0 ROOT
