@<TRIPOS>MOLECULE
7EM
   42    45     1     0     0
SMALL
No Charge or Current Charge


@<TRIPOS>ATOM
      1 O01         -7.6430     0.1110     0.0600 oh         1 7EM      -0.531100
      2 C02         -6.2830     0.0250     0.0360 ca         1 7EM       0.144100
      3 C03         -5.6460    -1.0600     0.6520 ca         1 7EM      -0.175000
      4 C04         -4.2430    -1.1590     0.6330 ca         1 7EM      -0.059500
      5 C05         -3.4640    -0.1680    -0.0010 ca         1 7EM      -0.047000
      6 C06         -2.0030    -0.2850    -0.0200 cc         1 7EM      -0.146000
      7 C07         -1.1850     0.8180     0.0060 cd         1 7EM      -0.122000
      8 C08          0.2150     0.5150     0.0180 cd         1 7EM      -0.043000
      9 C09          1.2510     1.5750     0.1370 ca         1 7EM      -0.058000
     10 C10          0.9900     2.8690    -0.3690 ca         1 7EM      -0.057000
     11 C11          1.9490     3.8920    -0.2630 ca         1 7EM      -0.179000
     12 C12          3.1770     3.6450     0.3600 ca         1 7EM       0.141100
     13 O13          4.0980     4.6430     0.4600 oh         1 7EM      -0.534100
     14 C14          3.4480     2.3740     0.8860 ca         1 7EM      -0.179000
     15 C15          2.4910     1.3480     0.7790 ca         1 7EM      -0.057000
     16 C16          0.4110    -0.8600     0.0470 cc         1 7EM      -0.140000
     17 C17          1.7190    -1.4910    -0.1160 ca         1 7EM      -0.055000
     18 C18          2.1190    -2.5150     0.7650 ca         1 7EM      -0.055000
     19 C19          3.3690    -3.1390     0.6070 ca         1 7EM      -0.178500
     20 C20          4.2210    -2.7490    -0.4380 ca         1 7EM       0.144100
     21 O21          5.4340    -3.3500    -0.5980 oh         1 7EM      -0.531100
     22 C22          3.8240    -1.7410    -1.3280 ca         1 7EM      -0.178500
     23 C23          2.5740    -1.1160    -1.1720 ca         1 7EM      -0.055000
     24 S24         -1.0900    -1.7810     0.0460 ss         1 7EM       0.207000
     25 C25         -4.1180     0.9170    -0.6250 ca         1 7EM      -0.059500
     26 C26         -5.5210     1.0140    -0.6040 ca         1 7EM      -0.175000
     27 H1          -7.9110     0.9260    -0.4160 ho         1 7EM       0.466000
     28 H2          -6.2360    -1.8260     1.1480 ha         1 7EM       0.122000
     29 H3          -3.7650    -2.0040     1.1210 ha         1 7EM       0.117000
     30 H4          -1.5700     1.8310     0.0460 ha         1 7EM       0.136000
     31 H5           0.0530     3.0850    -0.8750 ha         1 7EM       0.118500
     32 H6           1.7360     4.8780    -0.6690 ha         1 7EM       0.121000
     33 H7           4.8880     4.2910     0.9230 ho         1 7EM       0.465000
     34 H8           4.3920     2.1740     1.3870 ha         1 7EM       0.121000
     35 H9           2.7150     0.3890     1.2340 ha         1 7EM       0.118500
     36 H10          1.4630    -2.8200     1.5770 ha         1 7EM       0.121500
     37 H11          3.6670    -3.9240     1.2990 ha         1 7EM       0.122500
     38 H12          5.5400    -4.0250     0.1050 ho         1 7EM       0.465000
     39 H13          4.4820    -1.4430    -2.1400 ha         1 7EM       0.122500
     40 H14          2.2700    -0.3390    -1.8690 ha         1 7EM       0.121500
     41 H15         -3.5430     1.6840    -1.1390 ha         1 7EM       0.117000
     42 H16         -6.0060     1.8560    -1.0910 ha         1 7EM       0.122000
@<TRIPOS>BOND
     1     1     2 1   
     2     1    27 1   
     3     2     3 ar  
     4     2    26 ar  
     5     3     4 ar  
     6     3    28 1   
     7     4     5 ar  
     8     4    29 1   
     9     5     6 1   
    10     5    25 ar  
    11     6     7 2   
    12     6    24 1   
    13     7     8 1   
    14     7    30 1   
    15     8     9 1   
    16     8    16 2   
    17     9    10 ar  
    18     9    15 ar  
    19    10    11 ar  
    20    10    31 1   
    21    11    12 ar  
    22    11    32 1   
    23    12    13 1   
    24    12    14 ar  
    25    13    33 1   
    26    14    15 ar  
    27    14    34 1   
    28    15    35 1   
    29    16    17 1   
    30    16    24 1   
    31    17    18 ar  
    32    17    23 ar  
    33    18    19 ar  
    34    18    36 1   
    35    19    20 ar  
    36    19    37 1   
    37    20    21 1   
    38    20    22 ar  
    39    21    38 1   
    40    22    23 ar  
    41    22    39 1   
    42    23    40 1   
    43    25    26 ar  
    44    25    41 1   
    45    26    42 1   
@<TRIPOS>SUBSTRUCTURE
     1 7EM         1 TEMP              0 ****  ****    0 ROOT
