@<TRIPOS>MOLECULE
7EM
   42    45     1     0     0
SMALL
abcg2


@<TRIPOS>ATOM
      1 O01         -7.5910    -0.2140     0.1530 oh         1 7EM      -0.531100
      2 C02         -6.2480    -0.1490     0.1030 ca         1 7EM       0.144100
      3 C03         -5.5240    -1.2450     0.5680 ca         1 7EM      -0.175000
      4 C04         -4.1410    -1.2250     0.5400 ca         1 7EM      -0.059500
      5 C05         -3.4370    -0.1240     0.0450 ca         1 7EM      -0.047000
      6 C06         -1.9780    -0.0910     0.0150 cc         1 7EM      -0.146000
      7 C07         -1.1500     0.9940     0.0530 cd         1 7EM      -0.122000
      8 C08          0.2370     0.6710     0.0270 cd         1 7EM      -0.043000
      9 C09          1.2850     1.7020     0.1100 ca         1 7EM      -0.058000
     10 C10          1.2070     2.8510    -0.6770 ca         1 7EM      -0.057000
     11 C11          2.1740     3.8400    -0.6120 ca         1 7EM      -0.179000
     12 C12          3.2530     3.6990     0.2570 ca         1 7EM       0.141100
     13 O13          4.1720     4.6840     0.2840 oh         1 7EM      -0.534100
     14 C14          3.3410     2.5630     1.0590 ca         1 7EM      -0.179000
     15 C15          2.3660     1.5830     0.9820 ca         1 7EM      -0.057000
     16 C16          0.4520    -0.6840    -0.0450 cc         1 7EM      -0.140000
     17 C17          1.7040    -1.4350    -0.1520 ca         1 7EM      -0.055000
     18 C18          1.9030    -2.6170     0.5610 ca         1 7EM      -0.055000
     19 C19          3.0800    -3.3400     0.4450 ca         1 7EM      -0.178500
     20 C20          4.0960    -2.8870    -0.3910 ca         1 7EM       0.144100
     21 O21          5.2620    -3.5420    -0.5430 oh         1 7EM      -0.531100
     22 C22          3.9120    -1.7080    -1.1130 ca         1 7EM      -0.178500
     23 C23          2.7310    -1.0000    -0.9950 ca         1 7EM      -0.055000
     24 S24         -1.0480    -1.5410    -0.0800 ss         1 7EM       0.207000
     25 C25         -4.1790     0.9630    -0.4230 ca         1 7EM      -0.059500
     26 C26         -5.5620     0.9580    -0.3920 ca         1 7EM      -0.175000
     27 H1          -7.9810     0.6000    -0.1860 ho         1 7EM       0.466000
     28 H2          -6.0450    -2.1090     0.9610 ha         1 7EM       0.122000
     29 H3          -3.6060    -2.0830     0.9300 ha         1 7EM       0.117000
     30 H4          -1.5110     2.0100     0.1500 ha         1 7EM       0.136000
     31 H5           0.3810     2.9740    -1.3680 ha         1 7EM       0.118500
     32 H6           2.0980     4.7210    -1.2380 ha         1 7EM       0.121000
     33 H7           4.8730     4.4750     0.9110 ho         1 7EM       0.465000
     34 H8           4.1660     2.4450     1.7520 ha         1 7EM       0.121000
     35 H9           2.4480     0.7130     1.6210 ha         1 7EM       0.118500
     36 H10          1.1350    -2.9820     1.2320 ha         1 7EM       0.121500
     37 H11          3.2040    -4.2550     1.0140 ha         1 7EM       0.122500
     38 H12          5.2730    -4.3400    -0.0030 ho         1 7EM       0.465000
     39 H13          4.6930    -1.3540    -1.7740 ha         1 7EM       0.122500
     40 H14          2.6030    -0.0990    -1.5790 ha         1 7EM       0.121500
     41 H15         -3.6720     1.8250    -0.8370 ha         1 7EM       0.117000
     42 H16         -6.1070     1.8170    -0.7680 ha         1 7EM       0.122000
@<TRIPOS>BOND
     1     1     2 1   
     2     1    27 1   
     3     2     3 ar  
     4     2    26 ar  
     5     3     4 ar  
     6     3    28 1   
     7     4     5 ar  
     8     4    29 1   
     9     5     6 1   
    10     5    25 ar  
    11     6     7 2   
    12     6    24 1   
    13     7     8 1   
    14     7    30 1   
    15     8     9 1   
    16     8    16 2   
    17     9    10 ar  
    18     9    15 ar  
    19    10    11 ar  
    20    10    31 1   
    21    11    12 ar  
    22    11    32 1   
    23    12    13 1   
    24    12    14 ar  
    25    13    33 1   
    26    14    15 ar  
    27    14    34 1   
    28    15    35 1   
    29    16    17 1   
    30    16    24 1   
    31    17    18 ar  
    32    17    23 ar  
    33    18    19 ar  
    34    18    36 1   
    35    19    20 ar  
    36    19    37 1   
    37    20    21 1   
    38    20    22 ar  
    39    21    38 1   
    40    22    23 ar  
    41    22    39 1   
    42    23    40 1   
    43    25    26 ar  
    44    25    41 1   
    45    26    42 1   
@<TRIPOS>SUBSTRUCTURE
     1 7EM         1 TEMP              0 ****  ****    0 ROOT
