@<TRIPOS>MOLECULE
7EN
   32    34     1     0     0
SMALL
abcg2


@<TRIPOS>ATOM
      1 O01          2.4150     4.4170     0.4190 oh         1 7EN      -0.526100
      2 C02          2.0070     3.1620     0.1860 ca         1 7EN       0.157100
      3 C03          2.4610     2.1690     1.0530 ca         1 7EN      -0.140000
      4 C04          2.0670     0.8610     0.8520 ca         1 7EN       0.171000
      5 CL05         2.6130    -0.3290     1.9830 cl         1 7EN      -0.202000
      6 C06          1.2230     0.4870    -0.1950 ca         1 7EN      -0.052800
      7 C07          0.7850    -0.8770    -0.4560 ce         1 7EN       0.011500
      8 C08         -0.4620    -1.3460    -0.6560 cf         1 7EN       0.027800
      9 C09         -1.7070    -0.5900    -0.4760 ca         1 7EN      -0.088800
     10 C10         -2.0470     0.0910     0.6940 ca         1 7EN       0.180000
     11 CL11        -1.0230     0.0110     2.0840 cl         1 7EN      -0.177000
     12 C12         -3.2200     0.8160     0.8050 ca         1 7EN      -0.150000
     13 C13         -4.1000     0.8740    -0.2730 ca         1 7EN       0.159100
     14 O14         -5.2190     1.5950    -0.1160 oh         1 7EN      -0.525100
     15 C15         -3.7980     0.1850    -1.4460 ca         1 7EN      -0.212000
     16 C16         -2.6220    -0.5350    -1.5280 ca         1 7EN      -0.048000
     17 C17         -0.4690    -2.7240    -1.1520 cf         1 7EN      -0.119000
     18 C18          0.7460    -3.2480    -1.3370 ce         1 7EN      -0.191300
     19 S19          1.9830    -2.1840    -0.6600 sx         1 7EN       0.308600
     20 O20          3.0700    -1.7820    -1.6190 o          1 7EN      -0.477000
     21 C21          0.7870     1.5050    -1.0460 ca         1 7EN      -0.036000
     22 C22          1.1610     2.8220    -0.8670 ca         1 7EN      -0.205000
     23 H1           2.0500     5.0210    -0.2370 ho         1 7EN       0.469000
     24 H2           3.1080     2.4280     1.8800 ha         1 7EN       0.146000
     25 H3          -3.4610     1.3320     1.7250 ha         1 7EN       0.147000
     26 H4          -5.7500     1.5830    -0.9210 ho         1 7EN       0.470000
     27 H5          -4.4740     0.2120    -2.2910 ha         1 7EN       0.120000
     28 H6          -2.3940    -1.0590    -2.4490 ha         1 7EN       0.121000
     29 H7          -1.3910    -3.2650    -1.3200 ha         1 7EN       0.198000
     30 H8           1.0020    -4.2530    -1.6370 h4         1 7EN       0.222000
     31 H9           0.1430     1.2500    -1.8780 ha         1 7EN       0.122000
     32 H10          0.8030     3.5810    -1.5530 ha         1 7EN       0.119000
@<TRIPOS>BOND
     1     1     2 1   
     2     1    23 1   
     3     2     3 ar  
     4     2    22 ar  
     5     3     4 ar  
     6     3    24 1   
     7     4     5 1   
     8     4     6 ar  
     9     6     7 1   
    10     6    21 ar  
    11     7     8 2   
    12     7    19 1   
    13     8     9 1   
    14     8    17 1   
    15     9    10 ar  
    16     9    16 ar  
    17    10    11 1   
    18    10    12 ar  
    19    12    13 ar  
    20    12    25 1   
    21    13    14 1   
    22    13    15 ar  
    23    14    26 1   
    24    15    16 ar  
    25    15    27 1   
    26    16    28 1   
    27    17    18 2   
    28    17    29 1   
    29    18    19 1   
    30    18    30 1   
    31    19    20 2   
    32    21    22 ar  
    33    21    31 1   
    34    22    32 1   
@<TRIPOS>SUBSTRUCTURE
     1 7EN         1 TEMP              0 ****  ****    0 ROOT
