@<TRIPOS>MOLECULE
7EN
   32    34     1     0     0
SMALL
No Charge or Current Charge


@<TRIPOS>ATOM
      1 O01          2.4800     4.4640     0.5000 oh         1 7EN      -0.526100
      2 C02          2.0850     3.1810     0.2660 ca         1 7EN       0.157100
      3 C03          2.5480     2.1500     1.0920 ca         1 7EN      -0.140000
      4 C04          2.1480     0.8240     0.8610 ca         1 7EN       0.171000
      5 Cl05         2.7170    -0.4210     1.9750 cl         1 7EN      -0.202000
      6 C06          1.2750     0.5210    -0.2110 ca         1 7EN      -0.052800
      7 C07          0.8110    -0.8680    -0.4960 ce         1 7EN       0.011500
      8 C08         -0.4660    -1.3240    -0.6560 cf         1 7EN       0.027800
      9 C09         -1.7280    -0.5780    -0.5060 ca         1 7EN      -0.088800
     10 C10         -2.0600     0.1150     0.6830 ca         1 7EN       0.180000
     11 Cl11        -1.0220     0.0580     2.1060 cl         1 7EN      -0.177000
     12 C12         -3.2670     0.8270     0.7720 ca         1 7EN      -0.150000
     13 C13         -4.1530     0.8530    -0.3120 ca         1 7EN       0.159100
     14 O14         -5.3210     1.5460    -0.2140 oh         1 7EN      -0.525100
     15 C15         -3.8410     0.1590    -1.4890 ca         1 7EN      -0.212000
     16 C16         -2.6350    -0.5570    -1.5840 ca         1 7EN      -0.048000
     17 C17         -0.4740    -2.7360    -1.0080 cf         1 7EN      -0.119000
     18 C18          0.7610    -3.2850    -1.1190 ce         1 7EN      -0.191300
     19 S19          2.1080    -2.1150    -0.8270 sx         1 7EN       0.308600
     20 O20          2.6920    -1.7930    -2.1920 o          1 7EN      -0.477000
     21 C21          0.8080     1.5690    -1.0290 ca         1 7EN      -0.036000
     22 C22          1.2130     2.8940    -0.7930 ca         1 7EN      -0.205000
     23 H1           2.0590     5.0440    -0.1700 ho         1 7EN       0.469000
     24 H2           3.2130     2.3770     1.9200 ha         1 7EN       0.146000
     25 H3          -3.5180     1.3510     1.6890 ha         1 7EN       0.147000
     26 H4          -5.8100     1.4490    -1.0590 ho         1 7EN       0.470000
     27 H5          -4.5250     0.1700    -2.3350 ha         1 7EN       0.120000
     28 H6          -2.3970    -1.0860    -2.5050 ha         1 7EN       0.121000
     29 H7          -1.4010    -3.2970    -1.1490 ha         1 7EN       0.198000
     30 H8           1.0110    -4.3230    -1.3540 h4         1 7EN       0.222000
     31 H9           0.1320     1.3530    -1.8530 ha         1 7EN       0.122000
     32 H10          0.8440     3.6880    -1.4370 ha         1 7EN       0.119000
@<TRIPOS>BOND
     1     1     2 1   
     2     1    23 1   
     3     2     3 ar  
     4     2    22 ar  
     5     3     4 ar  
     6     3    24 1   
     7     4     5 1   
     8     4     6 ar  
     9     6     7 1   
    10     6    21 ar  
    11     7     8 2   
    12     7    19 1   
    13     8     9 1   
    14     8    17 1   
    15     9    10 ar  
    16     9    16 ar  
    17    10    11 1   
    18    10    12 ar  
    19    12    13 ar  
    20    12    25 1   
    21    13    14 1   
    22    13    15 ar  
    23    14    26 1   
    24    15    16 ar  
    25    15    27 1   
    26    16    28 1   
    27    17    18 2   
    28    17    29 1   
    29    18    19 1   
    30    18    30 1   
    31    19    20 2   
    32    21    22 ar  
    33    21    31 1   
    34    22    32 1   
@<TRIPOS>SUBSTRUCTURE
     1 7EN         1 TEMP              0 ****  ****    0 ROOT
