@<TRIPOS>MOLECULE
7EP
   47    48     1     0     0
SMALL
No Charge or Current Charge


@<TRIPOS>ATOM
      1 C           -0.6260     3.0060    -0.9820 c          1 7EP       0.575900
      2 N            0.8910     1.0780    -0.5860 ns         1 7EP      -0.469900
      3 O            0.1600     3.7400    -0.3870 o          1 7EP      -0.518100
      4 CA          -0.4080     1.4920    -1.1840 c3         1 7EP      -0.013300
      5 CB          -1.6250     0.6590    -0.6960 c5         1 7EP       0.369500
      6 CAA          4.3620     3.0230    -0.2740 c3         1 7EP       0.151400
      7 CAB          2.3380    -3.9790     1.0040 c3         1 7EP       0.151400
      8 CAJ          5.2040    -0.8220     1.4120 ca         1 7EP      -0.029000
      9 CAK          4.9230     0.4390     0.8770 ca         1 7EP      -0.248000
     10 CAL          4.2810    -1.8610     1.2620 ca         1 7EP      -0.248000
     11 NAN         -2.9150     1.0840    -1.2560 n7         1 7EP      -0.810400
     12 SAQ         -2.0020     0.9600     1.0780 ss         1 7EP      -0.623000
     13 CAR         -4.1460    -1.2750    -1.2900 c          1 7EP       0.736000
     14 CAS          1.4740    -0.1620    -0.7130 c          1 7EP       0.650700
     15 CAT          3.7160     0.6730     0.1840 ca         1 7EP       0.208600
     16 CAU          3.0670    -1.6490     0.5740 ca         1 7EP       0.208600
     17 CAV          2.7740    -0.3760     0.0260 ca         1 7EP      -0.224600
     18 CAY         -3.9590     0.1650    -0.6450 c5         1 7EP       0.028500
     19 CAZ         -3.6270     0.0720     0.9010 c5         1 7EP       0.132000
     20 H           -1.5530     3.4230    -1.4340 h4         1 7EP      -0.019800
     21 HN           1.4050     1.7540    -0.0300 hn         1 7EP       0.331500
     22 HA          -0.3410     1.3440    -2.2680 h1         1 7EP       0.102700
     23 HB          -1.4280    -0.4100    -0.8710 h2         1 7EP       0.139700
     24 HAA          3.9460     3.8980    -0.7890 h1         1 7EP       0.040700
     25 HAAA         4.5290     3.2950     0.7760 h1         1 7EP       0.040700
     26 HAAB         5.3280     2.7850    -0.7370 h1         1 7EP       0.040700
     27 HAB          3.2200    -4.4500     0.5510 h1         1 7EP       0.040700
     28 HABA         2.4770    -3.9390     2.0920 h1         1 7EP       0.040700
     29 HABB         1.4690    -4.6140     0.7960 h1         1 7EP       0.040700
     30 HAC         -4.3870     0.8470     2.8160 hc         1 7EP       0.034867
     31 HACA        -4.7820     1.8660     1.4250 hc         1 7EP       0.034867
     32 HACB        -5.6590     0.3510     1.6870 hc         1 7EP       0.034867
     33 HAD         -4.3720    -1.9400     1.4150 hc         1 7EP       0.034867
     34 HADA        -2.6550    -1.9090     0.9660 hc         1 7EP       0.034867
     35 HADB        -3.1660    -1.3160     2.5450 hc         1 7EP       0.034867
     36 HAJ          6.1380    -0.9930     1.9450 ha         1 7EP       0.102000
     37 HAK          5.6630     1.2220     1.0080 ha         1 7EP       0.116000
     38 HAL          4.5260    -2.8250     1.6960 ha         1 7EP       0.116000
     39 HNAN        -3.0910     2.0270    -0.9020 hn         1 7EP       0.380000
     40 HAY         -4.9380     0.6450    -0.7750 h1         1 7EP       0.059700
     41 CAC         -4.6730     0.8270     1.7570 c3         1 7EP      -0.070600
     42 CAD         -3.4460    -1.3560     1.4860 c3         1 7EP      -0.070600
     43 OAP          2.1300    -2.6610     0.4670 os         1 7EP      -0.316100
     44 OAO          3.4570     1.9100    -0.3770 os         1 7EP      -0.316100
     45 OAF         -5.2790    -1.7330    -1.3650 o          1 7EP      -0.715000
     46 OAG          0.9650    -1.0130    -1.4300 o          1 7EP      -0.606100
     47 OAH         -3.1940    -1.8540    -1.8010 o          1 7EP      -0.715000
@<TRIPOS>BOND
     1     1     3 2   
     2     1     4 1   
     3     1    20 1   
     4     2     4 1   
     5     2    14 1   
     6     2    21 1   
     7     4     5 1   
     8     4    22 1   
     9     5    11 1   
    10     5    12 1   
    11     5    23 1   
    12     6    24 1   
    13     6    25 1   
    14     6    26 1   
    15     6    44 1   
    16     7    27 1   
    17     7    28 1   
    18     7    29 1   
    19     7    43 1   
    20     8     9 ar  
    21     8    10 ar  
    22     8    36 1   
    23     9    15 ar  
    24     9    37 1   
    25    10    16 ar  
    26    10    38 1   
    27    11    18 1   
    28    11    39 1   
    29    12    19 1   
    30    13    18 1   
    31    13    45 1   
    32    13    47 1   
    33    14    17 1   
    34    14    46 2   
    35    15    17 ar  
    36    15    44 1   
    37    16    17 ar  
    38    16    43 1   
    39    18    19 1   
    40    18    40 1   
    41    19    41 1   
    42    19    42 1   
    43    30    41 1   
    44    31    41 1   
    45    32    41 1   
    46    33    42 1   
    47    34    42 1   
    48    35    42 1   
@<TRIPOS>SUBSTRUCTURE
     1 7EP         1 TEMP              0 ****  ****    0 ROOT
