@<TRIPOS>MOLECULE
7EP
   47    48     1     0     0
SMALL
bcc


@<TRIPOS>ATOM
      1 C           -0.7220     1.9480    -1.0040 c          1 7EP       0.575900
      2 N            0.7560     0.1160    -0.3400 ns         1 7EP      -0.536900
      3 O            0.1060     2.7670    -0.7080 o          1 7EP      -0.518100
      4 CA          -0.5000     0.4480    -0.9490 c3         1 7EP      -0.013300
      5 CB          -1.6540    -0.2480    -0.2290 c5         1 7EP       0.321600
      6 CAA          4.1430     3.1190     0.7870 c3         1 7EP       0.128200
      7 CAB          2.9970    -3.8130    -0.5690 c3         1 7EP       0.128200
      8 CAJ          5.3950    -0.8660     1.2200 ca         1 7EP      -0.047000
      9 CAK          5.0400     0.4690     1.1010 ca         1 7EP      -0.266000
     10 CAL          4.6440    -1.8830     0.6500 ca         1 7EP      -0.266000
     11 NAN         -2.8350    -0.3420    -1.0320 n7         1 7EP      -0.755200
     12 SAQ         -2.1190     0.6780     1.3270 ss         1 7EP      -0.527200
     13 CAR         -4.2490    -1.8660     0.3430 c          1 7EP       0.946600
     14 CAS          1.9160     0.1450    -1.0170 c          1 7EP       0.717700
     15 CAT          3.8910     0.7950     0.3820 ca         1 7EP       0.208600
     16 CAU          3.4970    -1.5470    -0.0670 ca         1 7EP       0.208600
     17 CAV          3.1190    -0.2110    -0.1950 ca         1 7EP      -0.224600
     18 CAY         -4.0210    -0.4370    -0.1970 c5         1 7EP       0.028500
     19 CAZ         -3.9150     0.6350     0.9320 c5         1 7EP       0.084100
     20 H           -1.7140     2.2510    -1.3860 h4         1 7EP      -0.019800
     21 HN           0.7860    -0.0500     0.6540 hn         1 7EP       0.331500
     22 HA          -0.4950     0.0870    -1.9860 h1         1 7EP       0.102700
     23 HB          -1.3370    -1.2410     0.0820 h2         1 7EP       0.139700
     24 HAA          3.5960     4.0220     0.5290 h1         1 7EP       0.040700
     25 HAAA         4.1800     3.0270     1.8760 h1         1 7EP       0.040700
     26 HAAB         5.1630     3.2030     0.4040 h1         1 7EP       0.040700
     27 HAB          3.9630    -4.0480    -1.0210 h1         1 7EP       0.040700
     28 HABA         2.9980    -4.1540     0.4690 h1         1 7EP       0.040700
     29 HABB         2.2170    -4.3420    -1.1110 h1         1 7EP       0.040700
     30 HAC         -4.1750     2.7830     1.1420 hc         1 7EP       0.034867
     31 HACA        -3.8320     2.2830    -0.5090 hc         1 7EP       0.034867
     32 HACB        -5.4260     1.9890     0.1830 hc         1 7EP       0.034867
     33 HAD         -5.7620     0.1980     1.9610 hc         1 7EP       0.034867
     34 HADA        -4.3600    -0.6170     2.6610 hc         1 7EP       0.034867
     35 HADB        -4.6040     1.1080     2.9250 hc         1 7EP       0.034867
     36 HAJ          6.2880    -1.1230     1.7760 ha         1 7EP       0.120000
     37 HAK          5.6550     1.2290     1.5620 ha         1 7EP       0.134000
     38 HAL          4.9610    -2.9100     0.7680 ha         1 7EP       0.134000
     39 HNAN        -2.9220     0.4620    -1.6420 hn         1 7EP       0.324800
     40 HAY         -4.8810    -0.1800    -0.8210 h1         1 7EP       0.059700
     41 CAC         -4.3560     2.0000     0.4050 c3         1 7EP      -0.070600
     42 CAD         -4.7020     0.3050     2.1940 c3         1 7EP      -0.070600
     43 OAP          2.6890    -2.4350    -0.6690 os         1 7EP      -0.292900
     44 OAO          3.4410     2.0450     0.1930 os         1 7EP      -0.292900
     45 OAF         -5.4410    -2.1990     0.4860 o          1 7EP      -0.820300
     46 OAG          1.9950     0.4080    -2.2050 o          1 7EP      -0.606100
     47 OAH         -3.2450    -2.5580     0.5950 o          1 7EP      -0.820300
@<TRIPOS>BOND
     1     1     3 2   
     2     1     4 1   
     3     1    20 1   
     4     2     4 1   
     5     2    14 1   
     6     2    21 1   
     7     4     5 1   
     8     4    22 1   
     9     5    11 1   
    10     5    12 1   
    11     5    23 1   
    12     6    24 1   
    13     6    25 1   
    14     6    26 1   
    15     6    44 1   
    16     7    27 1   
    17     7    28 1   
    18     7    29 1   
    19     7    43 1   
    20     8     9 ar  
    21     8    10 ar  
    22     8    36 1   
    23     9    15 ar  
    24     9    37 1   
    25    10    16 ar  
    26    10    38 1   
    27    11    18 1   
    28    11    39 1   
    29    12    19 1   
    30    13    18 1   
    31    13    45 1   
    32    13    47 1   
    33    14    17 1   
    34    14    46 2   
    35    15    17 ar  
    36    15    44 1   
    37    16    17 ar  
    38    16    43 1   
    39    18    19 1   
    40    18    40 1   
    41    19    41 1   
    42    19    42 1   
    43    30    41 1   
    44    31    41 1   
    45    32    41 1   
    46    33    42 1   
    47    34    42 1   
    48    35    42 1   
@<TRIPOS>SUBSTRUCTURE
     1 7EP         1 TEMP              0 ****  ****    0 ROOT
