@<TRIPOS>MOLECULE
7ER
   33    35     1     0     0
SMALL
abcg2


@<TRIPOS>ATOM
      1 F01         -0.4390    -2.9990     1.5010 f          1 7ER      -0.163500
      2 C01          0.4560    -2.6040     0.5890 ca         1 7ER       0.242000
      3 C02          1.6240    -3.3300     0.4810 ca         1 7ER      -0.234500
      4 C03          2.5740    -2.9350    -0.4570 ca         1 7ER       0.188100
      5 O01          3.7290    -3.5900    -0.6270 oh         1 7ER      -0.521100
      6 C04          2.3320    -1.8200    -1.2610 ca         1 7ER      -0.199500
      7 C05          1.1590    -1.1110    -1.1120 ca         1 7ER      -0.014500
      8 C06          0.1820    -1.4830    -0.1830 ca         1 7ER      -0.159800
      9 C07         -1.0670    -0.7330    -0.0460 ce         1 7ER       0.090800
     10 C08         -2.2850    -1.2770    -0.0360 cf         1 7ER      -0.342100
     11 S01         -3.5180    -0.0210     0.0470 sy         1 7ER       0.976200
     12 O02         -4.2980    -0.0030    -1.1850 o          1 7ER      -0.504500
     13 O03         -4.2480    -0.0640     1.3090 o          1 7ER      -0.504500
     14 C09         -2.3240     1.2750     0.0850 cf         1 7ER      -0.342100
     15 C10         -1.0900     0.7700     0.0550 ce         1 7ER       0.090800
     16 C11          0.1390     1.5600     0.1520 ca         1 7ER      -0.159800
     17 C12          0.3540     2.6900    -0.6290 ca         1 7ER       0.242000
     18 F02         -0.5850     3.0540    -1.5110 f          1 7ER      -0.163500
     19 C13          1.5020     3.4480    -0.5640 ca         1 7ER      -0.234500
     20 C14          2.4960     3.0800     0.3400 ca         1 7ER       0.188100
     21 O04          3.6000     3.8370     0.3840 oh         1 7ER      -0.521100
     22 C15          2.3130     1.9610     1.1530 ca         1 7ER      -0.199500
     23 C16          1.1560     1.2170     1.0450 ca         1 7ER      -0.014500
     24 H1           1.7830    -4.1890     1.1220 ha         1 7ER       0.145500
     25 H2           3.7930    -4.3410    -0.0250 ho         1 7ER       0.474500
     26 H3           3.0650    -1.5140    -1.9960 ha         1 7ER       0.132500
     27 H4           0.9890    -0.2530    -1.7480 ha         1 7ER       0.129000
     28 H5          -2.5700    -2.3120    -0.1500 h4         1 7ER       0.249500
     29 H9          -2.6390     2.3000     0.2090 h4         1 7ER       0.249500
     30 H11          1.6240     4.3090    -1.2080 ha         1 7ER       0.145500
     31 H12          4.2320     3.4800     1.0180 ho         1 7ER       0.474500
     32 H13          3.0740     1.6710     1.8670 ha         1 7ER       0.132500
     33 H14          1.0330     0.3560     1.6890 ha         1 7ER       0.129000
@<TRIPOS>BOND
     1     1     2 1   
     2     2     3 ar  
     3     2     8 ar  
     4     3     4 ar  
     5     3    24 1   
     6     4     5 1   
     7     4     6 ar  
     8     5    25 1   
     9     6     7 ar  
    10     6    26 1   
    11     7     8 ar  
    12     7    27 1   
    13     8     9 1   
    14     9    10 2   
    15     9    15 1   
    16    10    11 1   
    17    10    28 1   
    18    11    12 2   
    19    11    13 2   
    20    11    14 1   
    21    14    15 2   
    22    14    29 1   
    23    15    16 1   
    24    16    17 ar  
    25    16    23 ar  
    26    17    18 1   
    27    17    19 ar  
    28    19    20 ar  
    29    19    30 1   
    30    20    21 1   
    31    20    22 ar  
    32    21    31 1   
    33    22    23 ar  
    34    22    32 1   
    35    23    33 1   
@<TRIPOS>SUBSTRUCTURE
     1 7ER         1 TEMP              0 ****  ****    0 ROOT
