@<TRIPOS>MOLECULE
7ER
   33    35     1     0     0
SMALL
No Charge or Current Charge


@<TRIPOS>ATOM
      1 F01         -0.4650    -3.0670     1.5210 f          1 7ER      -0.163500
      2 C01          0.4430    -2.6630     0.6040 ca         1 7ER       0.242000
      3 C02          1.6260    -3.4020     0.4550 ca         1 7ER      -0.234500
      4 C03          2.5890    -2.9940    -0.4770 ca         1 7ER       0.188100
      5 O01          3.7400    -3.7030    -0.6310 oh         1 7ER      -0.521100
      6 C04          2.3680    -1.8540    -1.2590 ca         1 7ER      -0.199500
      7 C05          1.1840    -1.1120    -1.1110 ca         1 7ER      -0.014500
      8 C06          0.2110    -1.5050    -0.1670 ca         1 7ER      -0.159800
      9 C07         -1.0530    -0.7240    -0.0140 ce         1 7ER       0.090800
     10 C08         -2.3080    -1.2400     0.0090 cf         1 7ER      -0.342100
     11 S01         -3.5550    -0.0250     0.0540 sy         1 7ER       0.976200
     12 O02         -4.2940    -0.0180    -1.2140 o          1 7ER      -0.504500
     13 O03         -4.2410    -0.0570     1.3510 o          1 7ER      -0.504500
     14 C09         -2.3520     1.2330     0.0500 cf         1 7ER      -0.342100
     15 C10         -1.0780     0.7620     0.0210 ce         1 7ER       0.090800
     16 C11          0.1620     1.5880     0.1230 ca         1 7ER      -0.159800
     17 C12          0.3210     2.7520    -0.6570 ca         1 7ER       0.242000
     18 F02         -0.6360     3.1230    -1.5370 f          1 7ER      -0.163500
     19 C13          1.4820     3.5310    -0.5540 ca         1 7ER      -0.234500
     20 C14          2.4950     3.1610     0.3360 ca         1 7ER       0.188100
     21 O04          3.6180     3.9250     0.4280 oh         1 7ER      -0.521100
     22 C15          2.3490     2.0140     1.1290 ca         1 7ER      -0.199500
     23 C16          1.1850     1.2310     1.0270 ca         1 7ER      -0.014500
     24 H1           1.7830    -4.2850     1.0680 ha         1 7ER       0.145500
     25 H2           3.7230    -4.4620    -0.0110 ho         1 7ER       0.474500
     26 H3           3.1140    -1.5440    -1.9860 ha         1 7ER       0.132500
     27 H4           1.0200    -0.2370    -1.7380 ha         1 7ER       0.129000
     28 H5          -2.6100    -2.2860    -0.0500 h4         1 7ER       0.249500
     29 H9          -2.6870     2.2680     0.1210 h4         1 7ER       0.249500
     30 H11          1.5930     4.4190    -1.1680 ha         1 7ER       0.145500
     31 H12          4.2120     3.5210     1.0950 ho         1 7ER       0.474500
     32 H13          3.1280     1.7230     1.8290 ha         1 7ER       0.132500
     33 H14          1.0780     0.3520     1.6600 ha         1 7ER       0.129000
@<TRIPOS>BOND
     1     1     2 1   
     2     2     3 ar  
     3     2     8 ar  
     4     3     4 ar  
     5     3    24 1   
     6     4     5 1   
     7     4     6 ar  
     8     5    25 1   
     9     6     7 ar  
    10     6    26 1   
    11     7     8 ar  
    12     7    27 1   
    13     8     9 1   
    14     9    10 2   
    15     9    15 1   
    16    10    11 1   
    17    10    28 1   
    18    11    12 2   
    19    11    13 2   
    20    11    14 1   
    21    14    15 2   
    22    14    29 1   
    23    15    16 1   
    24    16    17 ar  
    25    16    23 ar  
    26    17    18 1   
    27    17    19 ar  
    28    19    20 ar  
    29    19    30 1   
    30    20    21 1   
    31    20    22 ar  
    32    21    31 1   
    33    22    23 ar  
    34    22    32 1   
    35    23    33 1   
@<TRIPOS>SUBSTRUCTURE
     1 7ER         1 TEMP              0 ****  ****    0 ROOT
