@<TRIPOS>MOLECULE
7ES
   31    33     1     0     0
SMALL
abcg2


@<TRIPOS>ATOM
      1 O01          2.5120    -4.1800    -0.4130 oh         1 7ES      -0.527100
      2 C02          2.1540    -2.8880    -0.3560 ca         1 7ES       0.175100
      3 C03          2.7800    -1.9780     0.4910 ca         1 7ES      -0.257000
      4 C04          2.3510    -0.6670     0.4900 ca         1 7ES       0.230000
      5 F05          2.9600     0.1910     1.3220 f          1 7ES      -0.171000
      6 C06          1.1200    -2.4570    -1.1870 ca         1 7ES      -0.166000
      7 C07          0.7270    -1.1330    -1.1630 ca         1 7ES      -0.030000
      8 C08          1.3260    -0.1950    -0.3180 ca         1 7ES      -0.092000
      9 C09          0.8770     1.1960    -0.2880 cc         1 7ES      -0.135000
     10 C10         -0.4130     1.6630    -0.2250 cd         1 7ES      -0.047000
     11 C11         -1.6090     0.8180    -0.0850 ca         1 7ES      -0.097000
     12 C12         -1.7460    -0.1210     0.9300 ca         1 7ES       0.227000
     13 F13         -0.7600    -0.2530     1.8270 f          1 7ES      -0.165000
     14 C14         -2.8570    -0.9230     1.0790 ca         1 7ES      -0.197000
     15 C15         -3.9110    -0.7850     0.1800 ca         1 7ES       0.169100
     16 O16         -4.9800    -1.5800     0.3520 oh         1 7ES      -0.527100
     17 C17         -3.8250     0.1580    -0.8420 ca         1 7ES      -0.229000
     18 C18         -2.6880     0.9390    -0.9600 ca         1 7ES      -0.037000
     19 C19         -0.4770     3.0840    -0.3200 cd         1 7ES      -0.120000
     20 C20          0.7450     3.6670    -0.4390 cc         1 7ES      -0.251000
     21 S21          1.9950     2.5000    -0.4460 ss         1 7ES       0.243000
     22 H1           3.2310    -4.3640     0.2030 ho         1 7ES       0.470000
     23 H2           3.5880    -2.2800     1.1470 ha         1 7ES       0.133000
     24 H3           0.6360    -3.1560    -1.8560 ha         1 7ES       0.134000
     25 H4          -0.0670    -0.8100    -1.8230 ha         1 7ES       0.126000
     26 H5          -2.9080    -1.6400     1.8890 ha         1 7ES       0.148000
     27 H6          -5.6500    -1.3970    -0.3160 ho         1 7ES       0.468000
     28 H7          -4.6370     0.2810    -1.5480 ha         1 7ES       0.118000
     29 H8          -2.6300     1.6590    -1.7660 ha         1 7ES       0.120000
     30 H9          -1.4020     3.6420    -0.2760 ha         1 7ES       0.135000
     31 H10          0.9760     4.7180    -0.5030 h4         1 7ES       0.152000
@<TRIPOS>BOND
     1     1     2 1   
     2     1    22 1   
     3     2     3 ar  
     4     2     6 ar  
     5     3     4 ar  
     6     3    23 1   
     7     4     5 1   
     8     4     8 ar  
     9     6     7 ar  
    10     6    24 1   
    11     7     8 ar  
    12     7    25 1   
    13     8     9 1   
    14     9    10 2   
    15     9    21 1   
    16    10    11 1   
    17    10    19 1   
    18    11    12 ar  
    19    11    18 ar  
    20    12    13 1   
    21    12    14 ar  
    22    14    15 ar  
    23    14    26 1   
    24    15    16 1   
    25    15    17 ar  
    26    16    27 1   
    27    17    18 ar  
    28    17    28 1   
    29    18    29 1   
    30    19    20 2   
    31    19    30 1   
    32    20    21 1   
    33    20    31 1   
@<TRIPOS>SUBSTRUCTURE
     1 7ES         1 TEMP              0 ****  ****    0 ROOT
