@<TRIPOS>MOLECULE
7ES
   31    33     1     0     0
SMALL
No Charge or Current Charge


@<TRIPOS>ATOM
      1 O01          2.5810    -4.1820    -0.4010 oh         1 7ES      -0.527100
      2 C02          2.1870    -2.8800    -0.3490 ca         1 7ES       0.175100
      3 C03          2.7590    -2.0090     0.5870 ca         1 7ES      -0.257000
      4 C04          2.3470    -0.6680     0.6340 ca         1 7ES       0.230000
      5 F05          2.9050     0.1520     1.5530 f          1 7ES      -0.171000
      6 C06          1.2110    -2.4120    -1.2390 ca         1 7ES      -0.166000
      7 C07          0.7980    -1.0690    -1.1940 ca         1 7ES      -0.030000
      8 C08          1.3560    -0.1840    -0.2480 ca         1 7ES      -0.092000
      9 C09          0.9320     1.2200    -0.2090 cc         1 7ES      -0.135000
     10 C10         -0.3950     1.6040    -0.3030 cd         1 7ES      -0.047000
     11 C11         -1.5980     0.7580    -0.0950 ca         1 7ES      -0.097000
     12 C12         -1.6540    -0.3120     0.8360 ca         1 7ES       0.227000
     13 F13         -0.6300    -0.5650     1.6810 f          1 7ES      -0.165000
     14 C14         -2.8200    -1.0800     0.9790 ca         1 7ES      -0.197000
     15 C15         -3.9500    -0.7930     0.2100 ca         1 7ES       0.169100
     16 O16         -5.0760    -1.5420     0.3560 oh         1 7ES      -0.527100
     17 C17         -3.9270     0.2770    -0.6920 ca         1 7ES      -0.229000
     18 C18         -2.7630     1.0530    -0.8370 ca         1 7ES      -0.037000
     19 C19         -0.4930     3.0160    -0.5010 cd         1 7ES      -0.120000
     20 C20          0.7070     3.6750    -0.5940 cc         1 7ES      -0.251000
     21 S21          2.0520     2.5650    -0.4020 ss         1 7ES       0.243000
     22 H1           3.2640    -4.3240     0.2880 ho         1 7ES       0.470000
     23 H2           3.5180    -2.3580     1.2820 ha         1 7ES       0.133000
     24 H3           0.7740    -3.0890    -1.9680 ha         1 7ES       0.134000
     25 H4           0.0470    -0.7160    -1.8970 ha         1 7ES       0.126000
     26 H5          -2.8470    -1.8890     1.7030 ha         1 7ES       0.148000
     27 H6          -5.7600    -1.1910    -0.2540 ho         1 7ES       0.468000
     28 H7          -4.8050     0.5150    -1.2890 ha         1 7ES       0.118000
     29 H8          -2.7620     1.8680    -1.5560 ha         1 7ES       0.120000
     30 H9          -1.4420     3.5410    -0.5600 ha         1 7ES       0.135000
     31 H10          0.9020     4.7300    -0.7410 h4         1 7ES       0.152000
@<TRIPOS>BOND
     1     1     2 1   
     2     1    22 1   
     3     2     3 ar  
     4     2     6 ar  
     5     3     4 ar  
     6     3    23 1   
     7     4     5 1   
     8     4     8 ar  
     9     6     7 ar  
    10     6    24 1   
    11     7     8 ar  
    12     7    25 1   
    13     8     9 1   
    14     9    10 2   
    15     9    21 1   
    16    10    11 1   
    17    10    19 1   
    18    11    12 ar  
    19    11    18 ar  
    20    12    13 1   
    21    12    14 ar  
    22    14    15 ar  
    23    14    26 1   
    24    15    16 1   
    25    15    17 ar  
    26    16    27 1   
    27    17    18 ar  
    28    17    28 1   
    29    18    29 1   
    30    19    20 2   
    31    19    30 1   
    32    20    21 1   
    33    20    31 1   
@<TRIPOS>SUBSTRUCTURE
     1 7ES         1 TEMP              0 ****  ****    0 ROOT
