@<TRIPOS>MOLECULE
7ET
   72    77     1     0     0
SMALL
abcg2


@<TRIPOS>ATOM
      1 C01         10.6680    24.0440    35.7940 ca         1 7ET       0.141100
      2 C02         11.8140    23.6250    36.4720 ca         1 7ET      -0.171500
      3 C03         13.0420    23.6450    35.8340 ca         1 7ET      -0.057500
      4 C04         13.1680    24.0850    34.5080 ca         1 7ET      -0.075800
      5 C05         12.0070    24.5230    33.8550 ca         1 7ET      -0.057500
      6 C06         10.7700    24.4970    34.4810 ca         1 7ET      -0.171500
      7 C07         14.4590    24.1330    33.8320 ce         1 7ET      -0.068400
      8 C08         15.5750    23.3820    33.9540 cf         1 7ET      -0.064400
      9 C09         16.5430    23.9570    32.9220 c5         1 7ET       0.214500
     10 C10         15.8550    22.1300    34.6550 ca         1 7ET      -0.089800
     11 C11         17.1380    21.8570    35.1530 ca         1 7ET      -0.055000
     12 C12         17.4270    20.6560    35.7740 ca         1 7ET      -0.173500
     13 C13         16.4390    19.6760    35.9040 ca         1 7ET       0.157100
     14 C14         15.1560    19.9240    35.4090 ca         1 7ET      -0.173500
     15 C15         14.8810    21.1370    34.7930 ca         1 7ET      -0.055000
     16 C16         14.7630    25.1120    32.6990 c5         1 7ET       0.181500
     17 C17         15.9910    23.4250    31.5590 c5         1 7ET      -0.358700
     18 C18         14.7510    24.3260    31.3580 c5         1 7ET      -0.060400
     19 O01         16.1740    25.3350    32.8710 os         1 7ET      -0.436000
     20 O02         16.8130    18.5200    36.5090 os         1 7ET      -0.358100
     21 C19         15.8520    17.4650    36.6260 c3         1 7ET       0.161600
     22 C20         16.5500    16.2880    37.2860 c3         1 7ET       0.165800
     23 N01         15.6510    15.1380    37.3380 n3         1 7ET      -0.732600
     24 C21         15.8740    14.2620    38.4930 c6         1 7ET       0.167300
     25 C22         15.6210    14.3570    36.0930 c6         1 7ET       0.167300
     26 O03          9.4320    24.0370    36.3710 oh         1 7ET      -0.535100
     27 S01         17.1600    23.4520    30.2100 s6         1 7ET       1.350700
     28 O04         17.5760    25.0090    30.0650 os         1 7ET      -0.460800
     29 C23         18.8340    25.4740    30.4780 ca         1 7ET       0.156100
     30 C24         19.9520    25.2070    29.7020 ca         1 7ET      -0.125000
     31 C25         21.1780    25.7290    30.0990 ca         1 7ET      -0.068000
     32 C26         21.2830    26.5120    31.2450 ca         1 7ET      -0.147000
     33 C27         20.1350    26.7550    31.9760 ca         1 7ET       0.179000
     34 C28         18.8960    26.2520    31.6230 ca         1 7ET      -0.154000
     35 O05         18.3230    22.6880    30.5790 o          1 7ET      -0.533000
     36 O06         16.4650    23.1400    28.9920 o          1 7ET      -0.533000
     37 C29         17.1320    13.3940    38.3800 c6         1 7ET      -0.111900
     38 C30         16.8620    13.4820    35.8800 c6         1 7ET      -0.111900
     39 C31         17.0950    12.5720    37.0890 c6         1 7ET      -0.073400
     40 F01         20.2170    27.5190    33.0920 f          1 7ET      -0.176000
     41 H1          11.7380    23.2900    37.5010 ha         1 7ET       0.124500
     42 H2          13.9220    23.3260    36.3750 ha         1 7ET       0.119500
     43 H3          12.0630    24.8800    32.8350 ha         1 7ET       0.119500
     44 H4           9.8800    24.8280    33.9620 ha         1 7ET       0.124500
     45 H5          17.6060    23.8260    33.0910 h1         1 7ET       0.112700
     46 H6          17.9200    22.6000    35.0600 ha         1 7ET       0.119000
     47 H7          18.4190    20.4540    36.1580 ha         1 7ET       0.126500
     48 H8          14.3770    19.1810    35.4860 ha         1 7ET       0.126500
     49 H9          13.8880    21.3100    34.3990 ha         1 7ET       0.119000
     50 H10         14.2200    26.0520    32.6950 h1         1 7ET       0.105700
     51 H11         15.7530    22.3620    31.6120 h1         1 7ET       0.116700
     52 H12         14.8760    25.0120    30.5230 hc         1 7ET       0.072700
     53 H13         13.8440    23.7460    31.2080 hc         1 7ET       0.072700
     54 H14         15.0050    17.7930    37.2340 h1         1 7ET       0.043700
     55 H15         15.4840    17.1950    35.6330 h1         1 7ET       0.043700
     56 H16         17.4880    16.0870    36.7520 h1         1 7ET       0.048200
     57 H17         16.8190    16.5680    38.3060 h1         1 7ET       0.048200
     58 H19         15.9080    14.8800    39.3920 h1         1 7ET       0.051700
     59 H20         15.0000    13.6070    38.5800 h1         1 7ET       0.051700
     60 H21         15.4840    15.0370    35.2510 h1         1 7ET       0.051700
     61 H22         14.7360    13.7140    36.1310 h1         1 7ET       0.051700
     62 H23          9.4920    23.7010    37.2760 ho         1 7ET       0.465000
     63 H24         19.8610    24.6020    28.8110 ha         1 7ET       0.136000
     64 H25         22.0610    25.5280    29.5080 ha         1 7ET       0.126000
     65 H26         22.2290    26.9280    31.5640 ha         1 7ET       0.138000
     66 H27         18.0130    26.4460    32.2130 ha         1 7ET       0.167000
     67 H28         17.2030    12.7400    39.2530 hc         1 7ET       0.044950
     68 H29         18.0200    14.0340    38.3850 hc         1 7ET       0.044950
     69 H30         16.7340    12.8910    34.9690 hc         1 7ET       0.044950
     70 H31         17.7400    14.1160    35.7250 hc         1 7ET       0.044950
     71 H32         16.2760    11.8450    37.1520 hc         1 7ET       0.041200
     72 H33         18.0180    12.0000    36.9680 hc         1 7ET       0.041200
@<TRIPOS>BOND
     1     1     2 ar  
     2     1     6 ar  
     3     1    26 1   
     4     2     3 ar  
     5     2    41 1   
     6     3     4 ar  
     7     3    42 1   
     8     4     5 ar  
     9     4     7 1   
    10     5     6 ar  
    11     5    43 1   
    12     6    44 1   
    13     7     8 2   
    14     7    16 1   
    15     8     9 1   
    16     8    10 1   
    17     9    17 1   
    18     9    19 1   
    19     9    45 1   
    20    10    11 ar  
    21    10    15 ar  
    22    11    12 ar  
    23    11    46 1   
    24    12    13 ar  
    25    12    47 1   
    26    13    14 ar  
    27    13    20 1   
    28    14    15 ar  
    29    14    48 1   
    30    15    49 1   
    31    16    18 1   
    32    16    19 1   
    33    16    50 1   
    34    17    18 1   
    35    17    27 1   
    36    17    51 1   
    37    18    52 1   
    38    18    53 1   
    39    20    21 1   
    40    21    22 1   
    41    21    54 1   
    42    21    55 1   
    43    22    23 1   
    44    22    56 1   
    45    22    57 1   
    46    23    24 1   
    47    23    25 1   
    48    24    37 1   
    49    24    58 1   
    50    24    59 1   
    51    25    38 1   
    52    25    60 1   
    53    25    61 1   
    54    26    62 1   
    55    27    28 1   
    56    27    35 2   
    57    27    36 2   
    58    28    29 1   
    59    29    30 ar  
    60    29    34 ar  
    61    30    31 ar  
    62    30    63 1   
    63    31    32 ar  
    64    31    64 1   
    65    32    33 ar  
    66    32    65 1   
    67    33    34 ar  
    68    33    40 1   
    69    34    66 1   
    70    37    39 1   
    71    37    67 1   
    72    37    68 1   
    73    38    39 1   
    74    38    69 1   
    75    38    70 1   
    76    39    71 1   
    77    39    72 1   
@<TRIPOS>SUBSTRUCTURE
     1 7ET         1 TEMP              0 ****  ****    0 ROOT
