@<TRIPOS>MOLECULE
7ET
   72    77     1     0     0
SMALL
No Charge or Current Charge


@<TRIPOS>ATOM
      1 C01         10.7270    23.6420    35.5830 ca         1 7ET       0.141100
      2 C02         11.8940    23.3530    36.3070 ca         1 7ET      -0.171500
      3 C03         13.1490    23.4420    35.6790 ca         1 7ET      -0.057500
      4 C04         13.2440    23.8120    34.3220 ca         1 7ET      -0.075800
      5 C05         12.0680    24.1110    33.6070 ca         1 7ET      -0.057500
      6 C06         10.8130    24.0220    34.2360 ca         1 7ET      -0.171500
      7 C07         14.5750    23.9150    33.6610 ce         1 7ET      -0.068400
      8 C08         15.7010    23.1490    33.8040 cf         1 7ET      -0.064400
      9 C09         16.7330    23.8250    32.8720 c5         1 7ET       0.214500
     10 C10         15.9610    21.8890    34.5310 ca         1 7ET      -0.089800
     11 C11         17.2440    21.6040    35.0400 ca         1 7ET      -0.055000
     12 C12         17.4860    20.4000    35.7230 ca         1 7ET      -0.173500
     13 C13         16.4580    19.4630    35.9030 ca         1 7ET       0.157100
     14 C14         15.1740    19.7370    35.3880 ca         1 7ET      -0.173500
     15 C15         14.9320    20.9420    34.7050 ca         1 7ET      -0.055000
     16 C16         14.9460    25.0250    32.6640 c5         1 7ET       0.181500
     17 C17         16.2790    23.4220    31.4410 c5         1 7ET      -0.358700
     18 C18         14.9790    24.3100    31.2700 c5         1 7ET      -0.060400
     19 O01         16.3370    25.1900    32.9350 os         1 7ET      -0.436000
     20 O02         16.7560    18.3000    36.5810 os         1 7ET      -0.358100
     21 C19         15.7700    17.2750    36.8160 c3         1 7ET       0.161600
     22 C20         16.4490    16.1260    37.6030 c3         1 7ET       0.165800
     23 N01         15.5360    15.0270    38.0460 n3         1 7ET      -0.732600
     24 C21         16.1880    14.0620    38.9800 c6         1 7ET       0.167300
     25 C22         14.8410    14.2970    36.9420 c6         1 7ET       0.167300
     26 O03          9.5060    23.5600    36.1830 oh         1 7ET      -0.535100
     27 S01         17.6270    23.8940    30.2290 s6         1 7ET       1.350700
     28 O04         17.6730    25.5370    30.3640 os         1 7ET      -0.460800
     29 C23         18.8860    26.1570    30.5020 ca         1 7ET       0.156100
     30 C24         19.8100    26.1730    29.4390 ca         1 7ET      -0.125000
     31 C25         21.0440    26.8320    29.5910 ca         1 7ET      -0.068000
     32 C26         21.3460    27.4810    30.8020 ca         1 7ET      -0.147000
     33 C27         20.4130    27.4740    31.8510 ca         1 7ET       0.179000
     34 C28         19.1820    26.8190    31.7020 ca         1 7ET      -0.154000
     35 O05         18.9090    23.3470    30.6940 o          1 7ET      -0.533000
     36 O06         17.1660    23.5790    28.8700 o          1 7ET      -0.533000
     37 C29         17.2120    13.1490    38.2540 c6         1 7ET      -0.111900
     38 C30         15.8160    13.3990    36.1350 c6         1 7ET      -0.111900
     39 C31         16.5510    12.4050    37.0680 c6         1 7ET      -0.073400
     40 F01         20.7010    28.1060    33.0090 f          1 7ET      -0.176000
     41 H1          11.8390    23.0630    37.3530 ha         1 7ET       0.124500
     42 H2          14.0510    23.2280    36.2490 ha         1 7ET       0.119500
     43 H3          12.1210    24.4060    32.5610 ha         1 7ET       0.119500
     44 H4           9.9090    24.2490    33.6770 ha         1 7ET       0.124500
     45 H5          17.7920    23.6740    33.1280 h1         1 7ET       0.112700
     46 H6          18.0550    22.3180    34.9240 ha         1 7ET       0.119000
     47 H7          18.4770    20.1920    36.1180 ha         1 7ET       0.126500
     48 H8          14.3560    19.0320    35.5020 ha         1 7ET       0.126500
     49 H9          13.9420    21.1310    34.2970 ha         1 7ET       0.119000
     50 H10         14.3740    25.9620    32.7310 h1         1 7ET       0.105700
     51 H11         16.1120    22.3460    31.3260 h1         1 7ET       0.116700
     52 H12         15.0470    25.0360    30.4520 hc         1 7ET       0.072700
     53 H13         14.0800    23.7080    31.0920 hc         1 7ET       0.072700
     54 H14         14.9350    17.6720    37.4070 h1         1 7ET       0.043700
     55 H15         15.3820    16.8940    35.8640 h1         1 7ET       0.043700
     56 H16         17.2620    15.7270    36.9830 h1         1 7ET       0.048200
     57 H17         16.9200    16.5750    38.4870 h1         1 7ET       0.048200
     58 H19         16.6930    14.5960    39.7990 h1         1 7ET       0.051700
     59 H20         15.4220    13.4250    39.4480 h1         1 7ET       0.051700
     60 H21         14.3350    14.9930    36.2590 h1         1 7ET       0.051700
     61 H22         14.0520    13.6570    37.3650 h1         1 7ET       0.051700
     62 H23          9.6360    23.2850    37.1150 ho         1 7ET       0.465000
     63 H24         19.5720    25.6820    28.4990 ha         1 7ET       0.136000
     64 H25         21.7610    26.8420    28.7720 ha         1 7ET       0.126000
     65 H26         22.2970    27.9920    30.9260 ha         1 7ET       0.138000
     66 H27         18.4620    26.8240    32.5150 ha         1 7ET       0.167000
     67 H28         17.6250    12.4210    38.9650 hc         1 7ET       0.044950
     68 H29         18.0620    13.7450    37.8950 hc         1 7ET       0.044950
     69 H30         15.2580    12.8450    35.3690 hc         1 7ET       0.044950
     70 H31         16.5460    14.0190    35.5970 hc         1 7ET       0.044950
     71 H32         15.8340    11.6660    37.4530 hc         1 7ET       0.041200
     72 H33         17.3080    11.8430    36.5030 hc         1 7ET       0.041200
@<TRIPOS>BOND
     1     1     2 ar  
     2     1     6 ar  
     3     1    26 1   
     4     2     3 ar  
     5     2    41 1   
     6     3     4 ar  
     7     3    42 1   
     8     4     5 ar  
     9     4     7 1   
    10     5     6 ar  
    11     5    43 1   
    12     6    44 1   
    13     7     8 2   
    14     7    16 1   
    15     8     9 1   
    16     8    10 1   
    17     9    17 1   
    18     9    19 1   
    19     9    45 1   
    20    10    11 ar  
    21    10    15 ar  
    22    11    12 ar  
    23    11    46 1   
    24    12    13 ar  
    25    12    47 1   
    26    13    14 ar  
    27    13    20 1   
    28    14    15 ar  
    29    14    48 1   
    30    15    49 1   
    31    16    18 1   
    32    16    19 1   
    33    16    50 1   
    34    17    18 1   
    35    17    27 1   
    36    17    51 1   
    37    18    52 1   
    38    18    53 1   
    39    20    21 1   
    40    21    22 1   
    41    21    54 1   
    42    21    55 1   
    43    22    23 1   
    44    22    56 1   
    45    22    57 1   
    46    23    24 1   
    47    23    25 1   
    48    24    37 1   
    49    24    58 1   
    50    24    59 1   
    51    25    38 1   
    52    25    60 1   
    53    25    61 1   
    54    26    62 1   
    55    27    28 1   
    56    27    35 2   
    57    27    36 2   
    58    28    29 1   
    59    29    30 ar  
    60    29    34 ar  
    61    30    31 ar  
    62    30    63 1   
    63    31    32 ar  
    64    31    64 1   
    65    32    33 ar  
    66    32    65 1   
    67    33    34 ar  
    68    33    40 1   
    69    34    66 1   
    70    37    39 1   
    71    37    67 1   
    72    37    68 1   
    73    38    39 1   
    74    38    69 1   
    75    38    70 1   
    76    39    71 1   
    77    39    72 1   
@<TRIPOS>SUBSTRUCTURE
     1 7ET         1 TEMP              0 ****  ****    0 ROOT
