@<TRIPOS>MOLECULE
7EX
   17    18     1     0     0
SMALL
bcc


@<TRIPOS>ATOM
      1 C1           0.9990     0.6680    -0.4650 cx         1 7EX       0.065100
      2 C2          -0.2420     1.5020    -0.3020 c6         1 7EX      -0.067900
      3 C3          -1.3380     0.7690     0.4650 c6         1 7EX      -0.072900
      4 C4          -1.5830    -0.6080    -0.1410 c6         1 7EX      -0.072900
      5 C5          -0.3520    -1.5090    -0.0460 c6         1 7EX      -0.067900
      6 C6           0.9430    -0.7890    -0.3420 cx         1 7EX       0.065100
      7 O            1.4790     0.0200     0.7020 op         1 7EX      -0.396600
      8 H1           1.7760     1.1050    -1.0920 h1         1 7EX       0.082200
      9 H2           0.0130     2.4470     0.1850 hc         1 7EX       0.051200
     10 H3          -0.6030     1.7570    -1.3030 hc         1 7EX       0.051200
     11 H4          -1.0620     0.6720     1.5190 hc         1 7EX       0.044200
     12 H5          -2.2540     1.3620     0.4390 hc         1 7EX       0.044200
     13 H6          -2.4320    -1.0940     0.3440 hc         1 7EX       0.044200
     14 H7          -1.8590    -0.4820    -1.1930 hc         1 7EX       0.044200
     15 H8          -0.2820    -1.9540     0.9510 hc         1 7EX       0.051200
     16 H9          -0.4520    -2.3440    -0.7430 hc         1 7EX       0.051200
     17 H10          1.6960    -1.3740    -0.8690 h1         1 7EX       0.082200
@<TRIPOS>BOND
     1     1     2 1   
     2     1     6 1   
     3     1     7 1   
     4     1     8 1   
     5     2     3 1   
     6     2     9 1   
     7     2    10 1   
     8     3     4 1   
     9     3    11 1   
    10     3    12 1   
    11     4     5 1   
    12     4    13 1   
    13     4    14 1   
    14     5     6 1   
    15     5    15 1   
    16     5    16 1   
    17     6     7 1   
    18     6    17 1   
@<TRIPOS>SUBSTRUCTURE
     1 7EX         1 TEMP              0 ****  ****    0 ROOT
