@<TRIPOS>MOLECULE
7EX
   17    18     1     0     0
SMALL
No Charge or Current Charge


@<TRIPOS>ATOM
      1 C1           1.0460     0.6940    -0.4660 cx         1 7EX       0.088300
      2 C2          -0.2360     1.5280    -0.2830 c6         1 7EX      -0.067900
      3 C3          -1.3690     0.7740     0.4600 c6         1 7EX      -0.072900
      4 C4          -1.6010    -0.6220    -0.1660 c6         1 7EX      -0.072900
      5 C5          -0.3480    -1.5230    -0.0190 c6         1 7EX      -0.067900
      6 C6           0.9640    -0.8110    -0.3980 cx         1 7EX       0.088300
      7 O            1.5480    -0.0310     0.6760 op         1 7EX      -0.443000
      8 H1           1.8110     1.1490    -1.0960 h1         1 7EX       0.082200
      9 H2           0.0100     2.4600     0.2450 hc         1 7EX       0.051200
     10 H3          -0.5940     1.8240    -1.2780 hc         1 7EX       0.051200
     11 H4          -1.1150     0.6680     1.5240 hc         1 7EX       0.044200
     12 H5          -2.2950     1.3630     0.4170 hc         1 7EX       0.044200
     13 H6          -2.4640    -1.1080     0.3080 hc         1 7EX       0.044200
     14 H7          -1.8540    -0.5100    -1.2300 hc         1 7EX       0.044200
     15 H8          -0.2690    -1.8760     1.0190 hc         1 7EX       0.051200
     16 H9          -0.4640    -2.4210    -0.6400 hc         1 7EX       0.051200
     17 H10          1.6780    -1.4090    -0.9650 h1         1 7EX       0.082200
@<TRIPOS>BOND
     1     1     2 1   
     2     1     6 1   
     3     1     7 1   
     4     1     8 1   
     5     2     3 1   
     6     2     9 1   
     7     2    10 1   
     8     3     4 1   
     9     3    11 1   
    10     3    12 1   
    11     4     5 1   
    12     4    13 1   
    13     4    14 1   
    14     5     6 1   
    15     5    15 1   
    16     5    16 1   
    17     6     7 1   
    18     6    17 1   
@<TRIPOS>SUBSTRUCTURE
     1 7EX         1 TEMP              0 ****  ****    0 ROOT
