@<TRIPOS>MOLECULE
7EY
   35    37     1     0     0
SMALL
No Charge or Current Charge


@<TRIPOS>ATOM
      1 C4          -2.4330     2.0950     0.0830 ca         1 7EY       0.146300
      2 C5          -1.5140     1.0570     0.1140 ca         1 7EY      -0.170800
      3 C6          -0.1380     1.4090     0.1810 ca         1 7EY       0.281300
      4 N1           0.2270     2.7100     0.1050 nb         1 7EY      -0.202000
      5 N3          -2.0820     3.3900     0.0110 nb         1 7EY      -0.184000
      6 OAB          5.5630     0.8940    -1.2430 o          1 7EY      -0.727500
      7 CAP          5.2080     0.9630    -0.0770 c          1 7EY       0.726000
      8 OAC          5.7680     1.6490     0.7640 o          1 7EY      -0.727500
      9 CAK          3.9420     0.2090     0.3360 c3         1 7EY      -0.219400
     10 CAJ          2.7280     1.1280     0.1130 c3         1 7EY       0.111600
     11 SAN          1.1710     0.2520     0.5990 ss         1 7EY      -0.382300
     12 C2          -0.7550     3.6290    -0.0040 ca         1 7EY       0.143900
     13 SAO         -4.1280     1.5850     0.2440 ss         1 7EY      -0.144900
     14 CAI         -3.5820    -0.1050     0.3720 cc         1 7EY      -0.189400
     15 CAS         -2.2170    -0.2300     0.1770 cd         1 7EY       0.028600
     16 CAR         -1.5920    -1.5660     0.0550 ca         1 7EY      -0.036800
     17 CAG         -2.1150    -2.6640     0.7710 ca         1 7EY      -0.080000
     18 CAE         -1.5660    -3.9490     0.6190 ca         1 7EY      -0.112500
     19 CAQ         -0.5010    -4.1670    -0.2730 ca         1 7EY      -0.071300
     20 CAA          0.0890    -5.5580    -0.4430 c3         1 7EY      -0.043800
     21 CAF         -0.0060    -3.0870    -1.0250 ca         1 7EY      -0.112500
     22 CAH         -0.5540    -1.8030    -0.8700 ca         1 7EY      -0.080000
     23 H2           3.7830    -0.6650    -0.3060 hc         1 7EY       0.032200
     24 H3           3.9570    -0.0200     1.4080 hc         1 7EY       0.032200
     25 H4           2.8360     2.0410     0.7150 h1         1 7EY       0.079200
     26 H5           2.6660     1.4140    -0.9450 h1         1 7EY       0.079200
     27 H6          -0.4460     4.6710    -0.0670 h5         1 7EY       0.046100
     28 H7          -4.3230    -0.8890     0.4680 h4         1 7EY       0.214000
     29 H9          -2.9350    -2.5220     1.4710 ha         1 7EY       0.116500
     30 H10         -1.9720    -4.7780     1.1950 ha         1 7EY       0.108000
     31 H11         -0.4350    -6.1110    -1.2310 hc         1 7EY       0.038700
     32 H12          1.1510    -5.5110    -0.7160 hc         1 7EY       0.038700
     33 H13          0.0130    -6.1400     0.4830 hc         1 7EY       0.038700
     34 H14          0.7990    -3.2440    -1.7400 ha         1 7EY       0.108000
     35 H15         -0.1870    -0.9930    -1.4950 ha         1 7EY       0.116500
@<TRIPOS>BOND
     1     1     2 ar  
     2     1     5 ar  
     3     1    13 1   
     4     2     3 ar  
     5     2    15 1   
     6     3     4 ar  
     7     3    11 1   
     8     4    12 ar  
     9     5    12 ar  
    10     6     7 1   
    11     7     8 1   
    12     7     9 1   
    13     9    10 1   
    14     9    23 1   
    15     9    24 1   
    16    10    11 1   
    17    10    25 1   
    18    10    26 1   
    19    12    27 1   
    20    13    14 1   
    21    14    15 2   
    22    14    28 1   
    23    15    16 1   
    24    16    17 ar  
    25    16    22 ar  
    26    17    18 ar  
    27    17    29 1   
    28    18    19 ar  
    29    18    30 1   
    30    19    20 1   
    31    19    21 ar  
    32    20    31 1   
    33    20    32 1   
    34    20    33 1   
    35    21    22 ar  
    36    21    34 1   
    37    22    35 1   
@<TRIPOS>SUBSTRUCTURE
     1 7EY         1 TEMP              0 ****  ****    0 ROOT
