@<TRIPOS>MOLECULE
7EY
   35    37     1     0     0
SMALL
abcg2


@<TRIPOS>ATOM
      1 C4          -2.3890     2.1240    -0.0610 ca         1 7EY       0.146300
      2 C5          -1.5060     1.0360    -0.0580 ca         1 7EY      -0.170800
      3 C6          -0.1410     1.3940    -0.0140 ca         1 7EY       0.281300
      4 N1           0.2150     2.6670    -0.0270 nb         1 7EY      -0.202000
      5 N3          -2.0340     3.4030    -0.0690 nb         1 7EY      -0.184000
      6 OAB          5.1770     2.1490     0.3210 o          1 7EY      -0.727500
      7 CAP          5.1660     0.9040     0.3410 c          1 7EY       0.726000
      8 OAC          6.1520     0.1470     0.4210 o          1 7EY      -0.727500
      9 CAK          3.7930     0.2030     0.2520 c3         1 7EY      -0.219400
     10 CAJ          2.6220     1.1680     0.2000 c3         1 7EY       0.111600
     11 SAN          1.1010     0.1750     0.0870 ss         1 7EY      -0.382300
     12 C2          -0.7330     3.6000    -0.0640 ca         1 7EY       0.143900
     13 SAO         -4.0370     1.6090    -0.0250 ss         1 7EY      -0.144900
     14 CAI         -3.5420    -0.0450    -0.0180 cc         1 7EY      -0.189400
     15 CAS         -2.1980    -0.2250    -0.0460 cd         1 7EY       0.028600
     16 CAR         -1.5800    -1.5650    -0.0810 ca         1 7EY      -0.036800
     17 CAG         -1.7010    -2.4290     1.0030 ca         1 7EY      -0.080000
     18 CAE         -1.1430    -3.6980     0.9590 ca         1 7EY      -0.112500
     19 CAQ         -0.4550    -4.1420    -0.1690 ca         1 7EY      -0.071300
     20 CAA          0.1190    -5.5270    -0.2240 c3         1 7EY      -0.043800
     21 CAF         -0.3410    -3.2720    -1.2510 ca         1 7EY      -0.112500
     22 CAH         -0.8950    -2.0020    -1.2120 ca         1 7EY      -0.080000
     23 H2           3.7930    -0.4390    -0.6340 hc         1 7EY       0.032200
     24 H3           3.6940    -0.4730     1.1070 hc         1 7EY       0.032200
     25 H4           2.5750     1.7900     1.0920 h1         1 7EY       0.079200
     26 H5           2.6830     1.8210    -0.6670 h1         1 7EY       0.079200
     27 H6          -0.3920     4.6290    -0.0820 h5         1 7EY       0.046100
     28 H7          -4.2920    -0.8220    -0.0150 h4         1 7EY       0.214000
     29 H9          -2.2250    -2.1030     1.8930 ha         1 7EY       0.116500
     30 H10         -1.2440    -4.3540     1.8160 ha         1 7EY       0.108000
     31 H11         -0.6350    -6.2460    -0.5530 hc         1 7EY       0.038700
     32 H12          0.9540    -5.5900    -0.9210 hc         1 7EY       0.038700
     33 H13          0.4690    -5.8540     0.7550 hc         1 7EY       0.038700
     34 H14          0.1870    -3.5920    -2.1420 ha         1 7EY       0.108000
     35 H15         -0.7960    -1.3470    -2.0680 ha         1 7EY       0.116500
@<TRIPOS>BOND
     1     1     2 ar  
     2     1     5 ar  
     3     1    13 1   
     4     2     3 ar  
     5     2    15 1   
     6     3     4 ar  
     7     3    11 1   
     8     4    12 ar  
     9     5    12 ar  
    10     6     7 1   
    11     7     8 1   
    12     7     9 1   
    13     9    10 1   
    14     9    23 1   
    15     9    24 1   
    16    10    11 1   
    17    10    25 1   
    18    10    26 1   
    19    12    27 1   
    20    13    14 1   
    21    14    15 2   
    22    14    28 1   
    23    15    16 1   
    24    16    17 ar  
    25    16    22 ar  
    26    17    18 ar  
    27    17    29 1   
    28    18    19 ar  
    29    18    30 1   
    30    19    20 1   
    31    19    21 ar  
    32    20    31 1   
    33    20    32 1   
    34    20    33 1   
    35    21    22 ar  
    36    21    34 1   
    37    22    35 1   
@<TRIPOS>SUBSTRUCTURE
     1 7EY         1 TEMP              0 ****  ****    0 ROOT
