@<TRIPOS>MOLECULE
7EZ
   59    58     1     0     0
SMALL
No Charge or Current Charge


@<TRIPOS>ATOM
      1 C1          -4.8550     4.0290    -0.5610 c3         1 7EZ      -0.085100
      2 C2          -5.4020     3.0120     0.4570 c3         1 7EZ      -0.045200
      3 C3          -6.8030     2.5460     0.1050 c2         1 7EZ      -0.214200
      4 C4          -7.1400     1.4210    -0.5510 c2         1 7EZ      -0.215200
      5 C5          -6.1930     0.3790    -1.1240 c3         1 7EZ      -0.075200
      6 C6          -6.0090    -0.8470    -0.1940 c3         1 7EZ       0.139300
      7 C7          -4.8930    -1.8220    -0.6870 c3         1 7EZ       0.140300
      8 C8          -4.5160    -2.9000     0.3590 c3         1 7EZ      -0.070200
      9 C9          -3.3660    -3.7870    -0.0900 c2         1 7EZ      -0.230200
     10 C10         -2.0550    -3.4870    -0.0580 c2         1 7EZ      -0.198200
     11 C11         -1.4200    -2.1900     0.4100 c3         1 7EZ      -0.010000
     12 O4           9.6670     1.0120    -1.0660 o          1 7EZ      -0.740500
     13 C22          8.5480     0.5220    -1.0380 c          1 7EZ       0.717000
     14 O3           8.3350    -0.6640    -0.8360 o          1 7EZ      -0.740500
     15 C21          7.3410     1.4610    -1.2050 c3         1 7EZ      -0.202400
     16 C20          6.8950     2.0070     0.1710 c3         1 7EZ      -0.038200
     17 C19          5.7150     2.9560     0.0580 c2         1 7EZ      -0.170200
     18 C18          4.4080     2.6490     0.1500 c2         1 7EZ      -0.275200
     19 C17          3.7890     1.2770     0.3490 c3         1 7EZ      -0.008000
     20 C16          2.9660     1.2370     1.6230 c2         1 7EZ      -0.179200
     21 C15          1.8740     0.4880     1.8580 c2         1 7EZ      -0.254200
     22 C14          1.2230    -0.5060     0.9130 c3         1 7EZ      -0.009000
     23 C13          0.7740    -1.7480     1.6600 c2         1 7EZ      -0.191200
     24 C12         -0.3510    -2.4570     1.4530 c2         1 7EZ      -0.239200
     25 O2          -5.3130    -2.4760    -1.9000 oh         1 7EZ      -0.660000
     26 H1          -4.8060     3.5840    -1.5620 hc         1 7EZ       0.032367
     27 H2          -5.4990     4.9150    -0.6060 hc         1 7EZ       0.032367
     28 H3          -3.8460     4.3500    -0.2770 hc         1 7EZ       0.032367
     29 H4          -4.7090     2.1640     0.5160 hc         1 7EZ       0.044200
     30 H5          -5.4030     3.4690     1.4540 hc         1 7EZ       0.044200
     31 H6          -7.5880     3.2170     0.4590 ha         1 7EZ       0.164000
     32 H7          -8.1950     1.1960    -0.7250 ha         1 7EZ       0.170000
     33 H8          -6.5550     0.0470    -2.1050 hc         1 7EZ       0.056700
     34 H9          -5.2090     0.8250    -1.3120 hc         1 7EZ       0.056700
     35 H10         -5.7160    -0.4700     0.7960 h1         1 7EZ       0.077700
     36 H12         -3.9920    -1.2210    -0.8790 h1         1 7EZ       0.076700
     37 H13         -4.2570    -2.4020     1.3010 hc         1 7EZ       0.056200
     38 H14         -5.3940    -3.5190     0.5860 hc         1 7EZ       0.056200
     39 H15         -3.6810    -4.7680    -0.4540 ha         1 7EZ       0.170000
     40 H16         -1.3280    -4.2230    -0.4070 ha         1 7EZ       0.172000
     41 H17         -0.9920    -1.6720    -0.4570 hc         1 7EZ       0.047200
     42 H18         -2.1690    -1.5090     0.8290 hc         1 7EZ       0.047200
     43 H20          7.6160     2.3400    -1.8010 hc         1 7EZ       0.017700
     44 H21          6.4780     0.9120    -1.6030 hc         1 7EZ       0.017700
     45 H22          6.6570     1.1660     0.8330 hc         1 7EZ       0.049700
     46 H23          7.7380     2.5270     0.6440 hc         1 7EZ       0.049700
     47 H24          6.0090     3.9950    -0.1010 ha         1 7EZ       0.151000
     48 H25          3.6680     3.4460     0.0540 ha         1 7EZ       0.146000
     49 H26          3.1640     1.0400    -0.5200 hc         1 7EZ       0.053700
     50 H27          4.5550     0.4940     0.3870 hc         1 7EZ       0.053700
     51 H28          3.3320     1.9080     2.4030 ha         1 7EZ       0.169000
     52 H29          1.3700     0.5690     2.8230 ha         1 7EZ       0.157000
     53 H30          0.3730    -0.0220     0.4160 hc         1 7EZ       0.049200
     54 H31          1.9180    -0.8010     0.1180 hc         1 7EZ       0.049200
     55 H32          1.4660    -2.0610     2.4440 ha         1 7EZ       0.173000
     56 H33         -0.5540    -3.3290     2.0770 ha         1 7EZ       0.164000
     57 H34         -4.5870    -3.0900    -2.1470 ho         1 7EZ       0.438000
     58 O1          -7.2510    -1.5640    -0.1040 oh         1 7EZ      -0.659000
     59 H11         -7.2070    -2.2080    -0.8470 ho         1 7EZ       0.437000
@<TRIPOS>BOND
     1     1     2 1   
     2     1    26 1   
     3     1    27 1   
     4     1    28 1   
     5     2     3 1   
     6     2    29 1   
     7     2    30 1   
     8     3     4 2   
     9     3    31 1   
    10     4     5 1   
    11     4    32 1   
    12     5     6 1   
    13     5    33 1   
    14     5    34 1   
    15     6     7 1   
    16     6    35 1   
    17     6    58 1   
    18     7     8 1   
    19     7    25 1   
    20     7    36 1   
    21     8     9 1   
    22     8    37 1   
    23     8    38 1   
    24     9    10 2   
    25     9    39 1   
    26    10    11 1   
    27    10    40 1   
    28    11    24 1   
    29    11    41 1   
    30    11    42 1   
    31    12    13 1   
    32    13    14 1   
    33    13    15 1   
    34    15    16 1   
    35    15    43 1   
    36    15    44 1   
    37    16    17 1   
    38    16    45 1   
    39    16    46 1   
    40    17    18 2   
    41    17    47 1   
    42    18    19 1   
    43    18    48 1   
    44    19    20 1   
    45    19    49 1   
    46    19    50 1   
    47    20    21 2   
    48    20    51 1   
    49    21    22 1   
    50    21    52 1   
    51    22    23 1   
    52    22    53 1   
    53    22    54 1   
    54    23    24 2   
    55    23    55 1   
    56    24    56 1   
    57    25    57 1   
    58    58    59 1   
@<TRIPOS>SUBSTRUCTURE
     1 7EZ         1 TEMP              0 ****  ****    0 ROOT
