@<TRIPOS>MOLECULE
7EZ
   59    58     1     0     0
SMALL
bcc


@<TRIPOS>ATOM
      1 C1          -9.6910     3.4270    -0.3370 c3         1 7EZ      -0.085100
      2 C2          -8.5700     2.6850     0.3900 c3         1 7EZ      -0.045200
      3 C3          -9.0050     1.3240     0.8370 c2         1 7EZ      -0.164200
      4 C4          -8.5410     0.1400     0.4380 c2         1 7EZ      -0.165200
      5 C5          -7.4440    -0.1170    -0.5470 c3         1 7EZ      -0.075200
      6 C6          -6.2480    -0.8400     0.0780 c3         1 7EZ       0.116100
      7 C7          -5.0900    -0.9840    -0.9180 c3         1 7EZ       0.117100
      8 C8          -3.8530    -1.6060    -0.2660 c3         1 7EZ      -0.070200
      9 C9          -2.6820    -1.6620    -1.1970 c2         1 7EZ      -0.180200
     10 C10         -1.4960    -1.0780    -1.0340 c2         1 7EZ      -0.148200
     11 C11         -1.0280    -0.2520     0.1310 c3         1 7EZ      -0.010000
     12 O4          10.5000    -0.4830     1.7560 o          1 7EZ      -0.845800
     13 C22         10.4720    -0.6490     0.5210 c          1 7EZ       0.927600
     14 O3          11.2510    -1.3580    -0.1490 o          1 7EZ      -0.845800
     15 C21          9.3830     0.0890    -0.2800 c3         1 7EZ      -0.202400
     16 C20          8.3670     0.8680     0.5510 c3         1 7EZ      -0.038200
     17 C19          7.3720     1.5690    -0.3190 c2         1 7EZ      -0.120200
     18 C18          6.0570     1.3600    -0.3930 c2         1 7EZ      -0.225200
     19 C17          5.2420     0.3910     0.4160 c3         1 7EZ      -0.008000
     20 C16          4.2190     1.1150     1.2430 c2         1 7EZ      -0.129200
     21 C15          2.8930     1.0450     1.1360 c2         1 7EZ      -0.204200
     22 C14          2.0980     0.1950     0.1870 c3         1 7EZ      -0.009000
     23 C13          1.3110    -0.8460     0.9310 c2         1 7EZ      -0.141200
     24 C12         -0.0090    -1.0230     0.9220 c2         1 7EZ      -0.189200
     25 O2          -5.4770    -1.6900    -2.0810 oh         1 7EZ      -0.597800
     26 H1          -9.9790     2.9010    -1.2490 hc         1 7EZ       0.032367
     27 H2         -10.5800     3.5140     0.2900 hc         1 7EZ       0.032367
     28 H3          -9.3800     4.4340    -0.6140 hc         1 7EZ       0.032367
     29 H4          -7.6910     2.6310    -0.2540 hc         1 7EZ       0.044200
     30 H5          -8.2710     3.2670     1.2670 hc         1 7EZ       0.044200
     31 H6          -9.8150     1.3230     1.5620 ha         1 7EZ       0.114000
     32 H7          -9.0010    -0.7450     0.8690 ha         1 7EZ       0.120000
     33 H8          -7.8290    -0.7250    -1.3730 hc         1 7EZ       0.056700
     34 H9          -7.0930     0.8140    -0.9960 hc         1 7EZ       0.056700
     35 H10         -5.8800    -0.2330     0.9130 h1         1 7EZ       0.077700
     36 H12         -4.8300     0.0250    -1.2550 h1         1 7EZ       0.076700
     37 H13         -3.6080    -1.0430     0.6360 hc         1 7EZ       0.056200
     38 H14         -4.1030    -2.6200     0.0670 hc         1 7EZ       0.056200
     39 H15         -2.8270    -2.2460    -2.1010 ha         1 7EZ       0.120000
     40 H16         -0.7470    -1.2300    -1.8060 ha         1 7EZ       0.122000
     41 H17         -0.6060     0.6850    -0.2400 hc         1 7EZ       0.047200
     42 H18         -1.8610     0.0190     0.7830 hc         1 7EZ       0.047200
     43 H20          9.8810     0.7670    -0.9830 hc         1 7EZ       0.017700
     44 H21          8.8600    -0.6370    -0.9100 hc         1 7EZ       0.017700
     45 H22          7.8740     0.1960     1.2540 hc         1 7EZ       0.049700
     46 H23          8.8960     1.6090     1.1590 hc         1 7EZ       0.049700
     47 H24          7.7920     2.3160    -0.9890 ha         1 7EZ       0.101000
     48 H25          5.4860     1.9510    -1.1040 ha         1 7EZ       0.096000
     49 H26          4.7600    -0.3230    -0.2570 hc         1 7EZ       0.053700
     50 H27          5.8870    -0.1940     1.0760 hc         1 7EZ       0.053700
     51 H28          4.6300     1.7810     1.9960 ha         1 7EZ       0.119000
     52 H29          2.2980     1.6470     1.8180 ha         1 7EZ       0.107000
     53 H30          1.4330     0.8340    -0.3980 hc         1 7EZ       0.049200
     54 H31          2.7560    -0.3020    -0.5300 hc         1 7EZ       0.049200
     55 H32          1.9080    -1.5180     1.5420 ha         1 7EZ       0.123000
     56 H33         -0.4140    -1.8410     1.5110 ha         1 7EZ       0.114000
     57 H34         -5.5480    -2.6250    -1.8630 ho         1 7EZ       0.399000
     58 O1          -6.6200    -2.0830     0.6390 oh         1 7EZ      -0.596800
     59 H11         -7.1820    -2.5520     0.0140 ho         1 7EZ       0.398000
@<TRIPOS>BOND
     1     1     2 1   
     2     1    26 1   
     3     1    27 1   
     4     1    28 1   
     5     2     3 1   
     6     2    29 1   
     7     2    30 1   
     8     3     4 2   
     9     3    31 1   
    10     4     5 1   
    11     4    32 1   
    12     5     6 1   
    13     5    33 1   
    14     5    34 1   
    15     6     7 1   
    16     6    35 1   
    17     6    58 1   
    18     7     8 1   
    19     7    25 1   
    20     7    36 1   
    21     8     9 1   
    22     8    37 1   
    23     8    38 1   
    24     9    10 2   
    25     9    39 1   
    26    10    11 1   
    27    10    40 1   
    28    11    24 1   
    29    11    41 1   
    30    11    42 1   
    31    12    13 1   
    32    13    14 1   
    33    13    15 1   
    34    15    16 1   
    35    15    43 1   
    36    15    44 1   
    37    16    17 1   
    38    16    45 1   
    39    16    46 1   
    40    17    18 2   
    41    17    47 1   
    42    18    19 1   
    43    18    48 1   
    44    19    20 1   
    45    19    49 1   
    46    19    50 1   
    47    20    21 2   
    48    20    51 1   
    49    21    22 1   
    50    21    52 1   
    51    22    23 1   
    52    22    53 1   
    53    22    54 1   
    54    23    24 2   
    55    23    55 1   
    56    24    56 1   
    57    25    57 1   
    58    58    59 1   
@<TRIPOS>SUBSTRUCTURE
     1 7EZ         1 TEMP              0 ****  ****    0 ROOT
