@<TRIPOS>MOLECULE
7F1
   95    99     1     0     0
SMALL
No Charge or Current Charge


@<TRIPOS>ATOM
      1 C01          5.2290     0.3950     0.4720 c3         1 7F1       0.114900
      2 N01          4.0040     0.5850    -0.3100 ns         1 7F1      -0.490900
      3 O01          8.2190     4.1440    -1.2120 o          1 7F1      -0.523500
      4 S01          7.8790     2.8160    -1.7330 sy         1 7F1       1.043100
      5 C02          6.4010     0.9500    -0.3170 c2         1 7F1      -0.060200
      6 N02          2.8970    -2.3070     3.3800 na         1 7F1      -0.216700
      7 O02          8.8850     1.7510    -1.8280 o          1 7F1      -0.523500
      8 C03          6.4690     2.2070    -0.8210 ce         1 7F1      -0.408100
      9 N03          0.3230     0.8690    -0.0550 ns         1 7F1      -0.490900
     10 O03          2.6530     1.3030     1.3860 o          1 7F1      -0.603100
     11 C04          7.2140     3.0780    -3.3740 c3         1 7F1      -0.338100
     12 N04         -3.1840    -0.3830    -0.0510 ns         1 7F1      -0.495900
     13 O04         -0.7800    -0.5890    -1.4170 o          1 7F1      -0.606100
     14 C05          5.4260    -1.0920     0.8700 c3         1 7F1      -0.006200
     15 N05         -5.9130    -0.4070    -2.0340 n3         1 7F1      -0.691600
     16 O05         -6.2820    -1.0210    -4.8520 os         1 7F1      -0.453000
     17 C06          4.2770    -1.6760     1.6560 cc         1 7F1      -0.158400
     18 N06         -4.1760     0.1230     4.6200 na         1 7F1      -0.214700
     19 O06         -4.6820     1.1890     0.6570 o          1 7F1      -0.584100
     20 C07          3.0740    -2.2580     1.1260 ca         1 7F1      -0.088800
     21 C08          2.2800    -2.6100     2.1810 ca         1 7F1      -0.050200
     22 C09          4.1440    -1.7250     3.0410 cd         1 7F1      -0.139100
     23 C10          2.6760    -2.4730    -0.2030 ca         1 7F1      -0.076000
     24 C11          1.4130    -3.0580    -0.4290 ca         1 7F1      -0.121000
     25 C12          0.5880    -3.4200     0.6620 ca         1 7F1      -0.099000
     26 C13          1.0220    -3.1980     1.9870 ca         1 7F1      -0.124000
     27 C14          2.7850     0.9650     0.2150 c          1 7F1       0.593100
     28 C15          1.6040     0.9330    -0.7950 c3         1 7F1       0.032700
     29 C16          1.6520     2.1700    -1.7360 c3         1 7F1      -0.082400
     30 C17          0.6830     2.1420    -2.9510 c3         1 7F1      -0.057700
     31 C18          0.6580     3.5130    -3.6660 c3         1 7F1      -0.092100
     32 C19          1.0200     1.0140    -3.9550 c3         1 7F1      -0.092100
     33 C21         -1.9670     0.1800     0.5790 c3         1 7F1       0.032700
     34 C22         -1.6430    -0.5370     1.9180 c3         1 7F1      -0.023200
     35 C23         -2.7690    -0.5090     2.9200 cc         1 7F1      -0.151400
     36 C24         -5.1550    -0.2100    -4.4410 c6         1 7F1       0.153600
     37 C25         -7.4410    -0.8380    -4.0030 c6         1 7F1       0.153600
     38 C26         -7.0890    -1.1890    -2.5260 c6         1 7F1       0.126800
     39 C27         -4.7530    -0.5450    -2.9730 c6         1 7F1       0.126800
     40 C28         -5.5750    -0.7110    -0.6050 c3         1 7F1       0.083800
     41 C30         -3.8680    -1.4310     3.0060 ca         1 7F1      -0.093800
     42 C31         -4.6830    -1.0150     4.0210 ca         1 7F1      -0.045200
     43 C32         -2.9800     0.4300     3.9250 cd         1 7F1      -0.132100
     44 C33         -4.1580    -2.5750     2.2460 ca         1 7F1      -0.078000
     45 C34         -5.3360    -3.2890     2.5490 ca         1 7F1      -0.147000
     46 C35         -6.1850    -2.8550     3.5940 ca         1 7F1      -0.099000
     47 C36         -5.8590    -1.7060     4.3460 ca         1 7F1      -0.120000
     48 H01          5.1460     0.9770     1.4010 h1         1 7F1       0.107700
     49 H1           4.0260     0.3500    -1.2940 hn         1 7F1       0.315500
     50 H2           7.2240     0.2440    -0.4590 ha         1 7F1       0.203000
     51 H051         5.5870    -1.6880    -0.0360 hc         1 7F1       0.051200
     52 H052         6.3470    -1.1790     1.4600 hc         1 7F1       0.051200
     53 H3           5.6960     2.9670    -0.7090 h4         1 7F1       0.222000
     54 H041         8.0190     3.4590    -4.0110 h1         1 7F1       0.102700
     55 H042         6.8450     2.1180    -3.7500 h1         1 7F1       0.102700
     56 H043         6.3990     3.8050    -3.3030 h1         1 7F1       0.102700
     57 H02          2.5290    -2.4650     4.3130 hn         1 7F1       0.354000
     58 H09          4.8350    -1.3760     3.8050 h4         1 7F1       0.213000
     59 H03          0.2600     1.3820     0.8180 hn         1 7F1       0.331500
     60 H15          1.7260     0.0140    -1.3820 h1         1 7F1       0.089700
     61 H04         -3.0870    -1.2260    -0.6040 hn         1 7F1       0.323500
     62 H21         -2.1340     1.2450     0.7850 h1         1 7F1       0.093700
     63 H261        -6.8840    -2.2680    -2.4620 h1         1 7F1       0.042200
     64 H262        -7.9690    -0.9900    -1.8980 h1         1 7F1       0.042200
     65 H271        -3.9350     0.1280    -2.6780 h1         1 7F1       0.042200
     66 H272        -4.3570    -1.5710    -2.9430 h1         1 7F1       0.042200
     67 H281        -6.4700    -0.5830     0.0180 h1         1 7F1       0.052200
     68 H282        -5.2820    -1.7650    -0.5100 h1         1 7F1       0.052200
     69 H241        -4.3080    -0.4020    -5.1140 h1         1 7F1       0.051950
     70 H242        -5.4240     0.8530    -4.5230 h1         1 7F1       0.051950
     71 H251        -7.7790     0.2070    -4.0700 h1         1 7F1       0.051950
     72 H252        -8.2550    -1.4850    -4.3580 h1         1 7F1       0.051950
     73 H06         -4.5820     0.6380     5.3960 hn         1 7F1       0.353000
     74 H32         -2.3770     1.2960     4.1860 h4         1 7F1       0.215000
     75 H10          3.3180    -2.1950    -1.0350 ha         1 7F1       0.103000
     76 H13          0.3960    -3.4740     2.8320 ha         1 7F1       0.119000
     77 H11          1.0710    -3.2310    -1.4460 ha         1 7F1       0.118000
     78 H12         -0.3850    -3.8710     0.4790 ha         1 7F1       0.110000
     79 H161         1.4500     3.0650    -1.1330 hc         1 7F1       0.050700
     80 H162         2.6740     2.2880    -2.1170 hc         1 7F1       0.050700
     81 H17         -0.3320     1.9640    -2.5760 hc         1 7F1       0.056700
     82 H181         1.6480     3.7610    -4.0690 hc         1 7F1       0.035533
     83 H182        -0.0590     3.5050    -4.4950 hc         1 7F1       0.035533
     84 H183         0.3610     4.3080    -2.9720 hc         1 7F1       0.035533
     85 H191         0.9470     0.0250    -3.4890 hc         1 7F1       0.035533
     86 H192         0.3230     1.0310    -4.8020 hc         1 7F1       0.035533
     87 H193         2.0370     1.1320    -4.3490 hc         1 7F1       0.035533
     88 H221        -1.3780    -1.5790     1.7040 hc         1 7F1       0.060200
     89 H222        -0.7490    -0.0850     2.3650 hc         1 7F1       0.060200
     90 H33         -3.4980    -2.9020     1.4470 ha         1 7F1       0.110000
     91 H36         -6.5030    -1.3670     5.1540 ha         1 7F1       0.115000
     92 H34         -5.5920    -4.1780     1.9760 ha         1 7F1       0.109000
     93 H35         -7.0910    -3.4120     3.8230 ha         1 7F1       0.110000
     94 C20         -0.7670     0.0990    -0.4040 c          1 7F1       0.600100
     95 C29         -4.4580     0.1350     0.0720 c          1 7F1       0.611100
@<TRIPOS>BOND
     1     1     2 1   
     2     1     5 1   
     3     1    14 1   
     4     1    48 1   
     5     2    27 1   
     6     2    49 1   
     7     3     4 2   
     8     4     7 2   
     9     4     8 1   
    10     4    11 1   
    11     5     8 2   
    12     5    50 1   
    13     6    21 1   
    14     6    22 1   
    15     6    57 1   
    16     8    53 1   
    17     9    28 1   
    18     9    59 1   
    19     9    94 1   
    20    10    27 2   
    21    11    54 1   
    22    11    55 1   
    23    11    56 1   
    24    12    33 1   
    25    12    61 1   
    26    12    95 1   
    27    13    94 2   
    28    14    17 1   
    29    14    51 1   
    30    14    52 1   
    31    15    38 1   
    32    15    39 1   
    33    15    40 1   
    34    16    36 1   
    35    16    37 1   
    36    17    20 1   
    37    17    22 2   
    38    18    42 1   
    39    18    43 1   
    40    18    73 1   
    41    19    95 2   
    42    20    21 ar  
    43    20    23 ar  
    44    21    26 ar  
    45    22    58 1   
    46    23    24 ar  
    47    23    75 1   
    48    24    25 ar  
    49    24    77 1   
    50    25    26 ar  
    51    25    78 1   
    52    26    76 1   
    53    27    28 1   
    54    28    29 1   
    55    28    60 1   
    56    29    30 1   
    57    29    79 1   
    58    29    80 1   
    59    30    31 1   
    60    30    32 1   
    61    30    81 1   
    62    31    82 1   
    63    31    83 1   
    64    31    84 1   
    65    32    85 1   
    66    32    86 1   
    67    32    87 1   
    68    33    34 1   
    69    33    62 1   
    70    33    94 1   
    71    34    35 1   
    72    34    88 1   
    73    34    89 1   
    74    35    41 1   
    75    35    43 2   
    76    36    39 1   
    77    36    69 1   
    78    36    70 1   
    79    37    38 1   
    80    37    71 1   
    81    37    72 1   
    82    38    63 1   
    83    38    64 1   
    84    39    65 1   
    85    39    66 1   
    86    40    67 1   
    87    40    68 1   
    88    40    95 1   
    89    41    42 ar  
    90    41    44 ar  
    91    42    47 ar  
    92    43    74 1   
    93    44    45 ar  
    94    44    90 1   
    95    45    46 ar  
    96    45    92 1   
    97    46    47 ar  
    98    46    93 1   
    99    47    91 1   
@<TRIPOS>SUBSTRUCTURE
     1 7F1         1 TEMP              0 ****  ****    0 ROOT
