@<TRIPOS>MOLECULE
7F1
   95    99     1     0     0
SMALL
abcg2


@<TRIPOS>ATOM
      1 C01          4.8820     0.4880     0.8440 c3         1 7F1       0.114900
      2 N01          3.8540     0.6430    -0.1520 ns         1 7F1      -0.490900
      3 O01          7.7300     3.8290    -1.5480 o          1 7F1      -0.523500
      4 S01          7.9670     2.4750    -1.0470 sy         1 7F1       1.043100
      5 C02          6.1870     1.0930     0.4280 c2         1 7F1      -0.060200
      6 N02          2.2870    -2.2330     3.3020 na         1 7F1      -0.216700
      7 O02          8.8420     2.3060     0.1130 o          1 7F1      -0.523500
      8 C03          6.3980     1.7560    -0.7000 ce         1 7F1      -0.408100
      9 N03          0.3950     1.3390    -0.6770 ns         1 7F1      -0.490900
     10 O03          2.3870     1.8050     1.1220 o          1 7F1      -0.603100
     11 C04          8.6030     1.4900    -2.3810 c3         1 7F1      -0.338100
     12 N04         -2.7790    -0.3870    -0.6690 ns         1 7F1      -0.495900
     13 O04         -0.3620    -0.4490    -1.8470 o          1 7F1      -0.606100
     14 C05          5.0710    -0.9910     1.2330 c3         1 7F1      -0.006200
     15 N05         -6.2790    -0.8210    -1.4830 n3         1 7F1      -0.691600
     16 O05         -8.5190    -0.8600    -3.2260 os         1 7F1      -0.453000
     17 C06          3.8340    -1.5920     1.8140 cc         1 7F1      -0.158400
     18 N06         -4.2660     0.1940     3.5640 na         1 7F1      -0.214700
     19 O06         -4.5250     0.9940    -0.2560 o          1 7F1      -0.584100
     20 C07          2.7480    -2.2110     1.1130 ca         1 7F1      -0.088800
     21 C08          1.7990    -2.6040     2.0840 ca         1 7F1      -0.050200
     22 C09          3.5020    -1.6330     3.1390 cd         1 7F1      -0.139100
     23 C10          2.4870    -2.4840    -0.2350 ca         1 7F1      -0.076000
     24 C11          1.3140    -3.1250    -0.5760 ca         1 7F1      -0.121000
     25 C12          0.3900    -3.5150     0.4070 ca         1 7F1      -0.099000
     26 C13          0.6180    -3.2630     1.7460 ca         1 7F1      -0.124000
     27 C14          2.6840     1.2680     0.0690 c          1 7F1       0.593100
     28 C15          1.7580     1.3420    -1.1440 c3         1 7F1       0.032700
     29 C16          2.0970     2.6140    -1.9330 c3         1 7F1      -0.082400
     30 C17          1.2440     2.8490    -3.1780 c3         1 7F1      -0.057700
     31 C18          1.6110     4.1970    -3.7930 c3         1 7F1      -0.092100
     32 C19          1.3960     1.7320    -4.2060 c3         1 7F1      -0.092100
     33 C21         -1.7440     0.4170    -0.0830 c3         1 7F1       0.032700
     34 C22         -1.3520    -0.0930     1.3270 c3         1 7F1      -0.023200
     35 C23         -2.5430    -0.2640     2.2060 cc         1 7F1      -0.151400
     36 C24         -7.5840     0.1950    -3.2690 c6         1 7F1       0.153600
     37 C25         -8.5970    -1.4050    -1.9270 c6         1 7F1       0.153600
     38 C26         -7.2470    -1.9030    -1.4500 c6         1 7F1       0.126800
     39 C27         -6.2080    -0.2580    -2.8200 c6         1 7F1       0.126800
     40 C28         -4.9930    -1.2470    -1.0070 c3         1 7F1       0.083800
     41 C30         -3.3730    -1.4270     2.3090 ca         1 7F1      -0.093800
     42 C31         -4.4480    -1.0970     3.1660 ca         1 7F1      -0.045200
     43 C32         -3.1290     0.6880     2.9910 cd         1 7F1      -0.132100
     44 C33         -3.3170    -2.7130     1.7600 ca         1 7F1      -0.078000
     45 C34         -4.3160    -3.6180     2.0610 ca         1 7F1      -0.147000
     46 C35         -5.3800    -3.2650     2.9080 ca         1 7F1      -0.099000
     47 C36         -5.4590    -2.0070     3.4730 ca         1 7F1      -0.120000
     48 H01          4.5540     1.0240     1.7380 h1         1 7F1       0.107700
     49 H1           3.9810     0.1630    -1.0300 hn         1 7F1       0.315500
     50 H2           6.9950     0.9650     1.1400 ha         1 7F1       0.203000
     51 H051         5.3980    -1.5520     0.3530 hc         1 7F1       0.051200
     52 H052         5.8870    -1.0510     1.9570 hc         1 7F1       0.051200
     53 H3           5.6460     1.9320    -1.4610 h4         1 7F1       0.222000
     54 H041         9.5480     1.9350    -2.6920 h1         1 7F1       0.102700
     55 H042         8.7640     0.4720    -2.0330 h1         1 7F1       0.102700
     56 H043         7.8980     1.5000    -3.2090 h1         1 7F1       0.102700
     57 H02          1.8370    -2.3930     4.1880 hn         1 7F1       0.354000
     58 H09          4.0550    -1.2750     3.9940 h4         1 7F1       0.213000
     59 H03          0.1800     1.9940     0.0600 hn         1 7F1       0.331500
     60 H15          1.8910     0.4630    -1.7770 h1         1 7F1       0.089700
     61 H04         -2.5080    -1.2990    -1.0030 hn         1 7F1       0.323500
     62 H21         -2.1190     1.4380     0.0080 h1         1 7F1       0.093700
     63 H261        -6.9300    -2.7590    -2.0710 h1         1 7F1       0.042200
     64 H262        -7.3470    -2.2690    -0.4250 h1         1 7F1       0.042200
     65 H271        -5.5400     0.6060    -2.8260 h1         1 7F1       0.042200
     66 H272        -5.8020    -0.9880    -3.5420 h1         1 7F1       0.042200
     67 H281        -5.1260    -1.8390    -0.0940 h1         1 7F1       0.052200
     68 H282        -4.4740    -1.9080    -1.7220 h1         1 7F1       0.052200
     69 H241        -7.5410     0.5530    -4.2990 h1         1 7F1       0.051950
     70 H242        -7.9170     1.0290    -2.6350 h1         1 7F1       0.051950
     71 H251        -8.9790    -0.6560    -1.2200 h1         1 7F1       0.051950
     72 H252        -9.3100    -2.2300    -1.9600 h1         1 7F1       0.051950
     73 H06         -4.8580     0.7020     4.1990 hn         1 7F1       0.353000
     74 H32         -2.8200     1.7050     3.1800 h4         1 7F1       0.215000
     75 H10          3.1970    -2.2050    -1.0050 ha         1 7F1       0.103000
     76 H13         -0.0980    -3.5610     2.5030 ha         1 7F1       0.119000
     77 H11          1.0980    -3.3330    -1.6150 ha         1 7F1       0.118000
     78 H12         -0.5180    -4.0240     0.1070 ha         1 7F1       0.110000
     79 H161         2.0010     3.4740    -1.2620 hc         1 7F1       0.050700
     80 H162         3.1510     2.5710    -2.2270 hc         1 7F1       0.050700
     81 H17          0.1950     2.8940    -2.8680 hc         1 7F1       0.056700
     82 H181         2.6480     4.2000    -4.1380 hc         1 7F1       0.035533
     83 H182         0.9780     4.4250    -4.6510 hc         1 7F1       0.035533
     84 H183         1.4990     5.0100    -3.0730 hc         1 7F1       0.035533
     85 H191         1.0130     0.7790    -3.8430 hc         1 7F1       0.035533
     86 H192         0.8490     1.9740    -5.1190 hc         1 7F1       0.035533
     87 H193         2.4450     1.5910    -4.4780 hc         1 7F1       0.035533
     88 H221        -0.8160    -1.0410     1.2260 hc         1 7F1       0.060200
     89 H222        -0.6440     0.6080     1.7750 hc         1 7F1       0.060200
     90 H33         -2.5060    -2.9970     1.0990 ha         1 7F1       0.110000
     91 H36         -6.2790    -1.7390     4.1280 ha         1 7F1       0.115000
     92 H34         -4.2830    -4.6140     1.6370 ha         1 7F1       0.109000
     93 H35         -6.1500    -3.9950     3.1250 ha         1 7F1       0.110000
     94 C20         -0.5100     0.3930    -0.9780 c          1 7F1       0.600100
     95 C29         -4.0910    -0.0860    -0.6160 c          1 7F1       0.611100
@<TRIPOS>BOND
     1     1     2 1   
     2     1     5 1   
     3     1    14 1   
     4     1    48 1   
     5     2    27 1   
     6     2    49 1   
     7     3     4 2   
     8     4     7 2   
     9     4     8 1   
    10     4    11 1   
    11     5     8 2   
    12     5    50 1   
    13     6    21 1   
    14     6    22 1   
    15     6    57 1   
    16     8    53 1   
    17     9    28 1   
    18     9    59 1   
    19     9    94 1   
    20    10    27 2   
    21    11    54 1   
    22    11    55 1   
    23    11    56 1   
    24    12    33 1   
    25    12    61 1   
    26    12    95 1   
    27    13    94 2   
    28    14    17 1   
    29    14    51 1   
    30    14    52 1   
    31    15    38 1   
    32    15    39 1   
    33    15    40 1   
    34    16    36 1   
    35    16    37 1   
    36    17    20 1   
    37    17    22 2   
    38    18    42 1   
    39    18    43 1   
    40    18    73 1   
    41    19    95 2   
    42    20    21 ar  
    43    20    23 ar  
    44    21    26 ar  
    45    22    58 1   
    46    23    24 ar  
    47    23    75 1   
    48    24    25 ar  
    49    24    77 1   
    50    25    26 ar  
    51    25    78 1   
    52    26    76 1   
    53    27    28 1   
    54    28    29 1   
    55    28    60 1   
    56    29    30 1   
    57    29    79 1   
    58    29    80 1   
    59    30    31 1   
    60    30    32 1   
    61    30    81 1   
    62    31    82 1   
    63    31    83 1   
    64    31    84 1   
    65    32    85 1   
    66    32    86 1   
    67    32    87 1   
    68    33    34 1   
    69    33    62 1   
    70    33    94 1   
    71    34    35 1   
    72    34    88 1   
    73    34    89 1   
    74    35    41 1   
    75    35    43 2   
    76    36    39 1   
    77    36    69 1   
    78    36    70 1   
    79    37    38 1   
    80    37    71 1   
    81    37    72 1   
    82    38    63 1   
    83    38    64 1   
    84    39    65 1   
    85    39    66 1   
    86    40    67 1   
    87    40    68 1   
    88    40    95 1   
    89    41    42 ar  
    90    41    44 ar  
    91    42    47 ar  
    92    43    74 1   
    93    44    45 ar  
    94    44    90 1   
    95    45    46 ar  
    96    45    92 1   
    97    46    47 ar  
    98    46    93 1   
    99    47    91 1   
@<TRIPOS>SUBSTRUCTURE
     1 7F1         1 TEMP              0 ****  ****    0 ROOT
