@<TRIPOS>MOLECULE
7F2
   28    27     1     0     0
SMALL
No Charge or Current Charge


@<TRIPOS>ATOM
      1 C1           5.4990    -0.2880    -0.2410 c3         1 7F2      -0.088100
      2 C2           4.2320     0.4680     0.2040 c3         1 7F2      -0.074400
      3 CE           2.9260    -0.2470    -0.2050 c3         1 7F2      -0.075400
      4 CD           1.6560     0.5110     0.2410 c3         1 7F2      -0.075400
      5 CG           0.3490    -0.2040    -0.1670 c3         1 7F2      -0.071400
      6 CB          -0.9210     0.5590     0.2810 c3         1 7F2      -0.109400
      7 CA          -2.2480    -0.1110    -0.1550 c3         1 7F2       0.164300
      8 C           -3.4920     0.7500     0.1990 c3         1 7F2       0.130600
      9 O           -4.6980     0.0500    -0.1500 oh         1 7F2      -0.644000
     10 O1          -2.3820    -1.3880     0.4860 oh         1 7F2      -0.639000
     11 H1           5.5310    -1.2890     0.2070 hc         1 7F2       0.031700
     12 H2           5.5230    -0.3960    -1.3330 hc         1 7F2       0.031700
     13 H3           6.3980     0.2560     0.0700 hc         1 7F2       0.031700
     14 H4           4.2550     0.5900     1.2940 hc         1 7F2       0.035700
     15 H5           4.2470     1.4750    -0.2320 hc         1 7F2       0.035700
     16 H6           2.9080    -0.3690    -1.2950 hc         1 7F2       0.038700
     17 H7           2.9150    -1.2540     0.2310 hc         1 7F2       0.038700
     18 H8           1.6740     0.6330     1.3320 hc         1 7F2       0.035200
     19 H9           1.6670     1.5190    -0.1940 hc         1 7F2       0.035200
     20 H10          0.3310    -0.3250    -1.2570 hc         1 7F2       0.047200
     21 H11          0.3430    -1.2110     0.2670 hc         1 7F2       0.047200
     22 H12         -0.9120     0.6700     1.3720 hc         1 7F2       0.040700
     23 H13         -0.8880     1.5720    -0.1390 hc         1 7F2       0.040700
     24 H14         -2.2300    -0.2350    -1.2470 h1         1 7F2       0.084700
     25 H15         -3.4840     0.9810     1.2720 h1         1 7F2       0.017200
     26 H16         -3.4350     1.7010    -0.3480 h1         1 7F2       0.017200
     27 H17         -5.4490     0.6550     0.0430 ho         1 7F2       0.440000
     28 H18         -3.3480    -1.5750     0.4610 ho         1 7F2       0.434000
@<TRIPOS>BOND
     1     1     2 1   
     2     1    11 1   
     3     1    12 1   
     4     1    13 1   
     5     2     3 1   
     6     2    14 1   
     7     2    15 1   
     8     3     4 1   
     9     3    16 1   
    10     3    17 1   
    11     4     5 1   
    12     4    18 1   
    13     4    19 1   
    14     5     6 1   
    15     5    20 1   
    16     5    21 1   
    17     6     7 1   
    18     6    22 1   
    19     6    23 1   
    20     7     8 1   
    21     7    10 1   
    22     7    24 1   
    23     8     9 1   
    24     8    25 1   
    25     8    26 1   
    26     9    27 1   
    27    10    28 1   
@<TRIPOS>SUBSTRUCTURE
     1 7F2         1 TEMP              0 ****  ****    0 ROOT
