@<TRIPOS>MOLECULE
7F2
   28    27     1     0     0
SMALL
bcc


@<TRIPOS>ATOM
      1 C1           5.3910    -0.2690    -0.2010 c3         1 7F2      -0.088100
      2 C2           4.1310     0.4170     0.3070 c3         1 7F2      -0.074400
      3 CE           2.8520    -0.2150    -0.2290 c3         1 7F2      -0.075400
      4 CD           1.5860     0.4820     0.2550 c3         1 7F2      -0.075400
      5 CG           0.3090    -0.1920    -0.2310 c3         1 7F2      -0.071400
      6 CB          -0.9510     0.5560     0.1890 c3         1 7F2      -0.109400
      7 CA          -2.2440    -0.1510    -0.2050 c3         1 7F2       0.141100
      8 C           -3.4480     0.7230     0.1000 c3         1 7F2       0.107400
      9 O           -4.6180     0.0880    -0.3590 oh         1 7F2      -0.581800
     10 O1          -2.3560    -1.4270     0.3940 oh         1 7F2      -0.576800
     11 H1           5.4100    -1.3230     0.0850 hc         1 7F2       0.031700
     12 H2           5.4530    -0.2250    -1.2900 hc         1 7F2       0.031700
     13 H3           6.2920     0.1970     0.2000 hc         1 7F2       0.031700
     14 H4           4.1160     0.3890     1.4010 hc         1 7F2       0.035700
     15 H5           4.1550     1.4760     0.0330 hc         1 7F2       0.035700
     16 H6           2.8740    -0.2050    -1.3240 hc         1 7F2       0.038700
     17 H7           2.8200    -1.2710     0.0620 hc         1 7F2       0.038700
     18 H8           1.5830     0.5120     1.3500 hc         1 7F2       0.035200
     19 H9           1.6000     1.5260    -0.0740 hc         1 7F2       0.035200
     20 H10          0.3320    -0.2700    -1.3230 hc         1 7F2       0.047200
     21 H11          0.2750    -1.2170     0.1470 hc         1 7F2       0.047200
     22 H12         -0.9440     0.7140     1.2750 hc         1 7F2       0.040700
     23 H13         -0.9430     1.5540    -0.2600 hc         1 7F2       0.040700
     24 H14         -2.2240    -0.3390    -1.2850 h1         1 7F2       0.084700
     25 H15         -3.4890     0.9140     1.1840 h1         1 7F2       0.017200
     26 H16         -3.3000     1.6980    -0.3840 h1         1 7F2       0.017200
     27 H17         -5.3630     0.6640    -0.1700 ho         1 7F2       0.401000
     28 H18         -2.3310    -1.3100     1.3500 ho         1 7F2       0.395000
@<TRIPOS>BOND
     1     1     2 1   
     2     1    11 1   
     3     1    12 1   
     4     1    13 1   
     5     2     3 1   
     6     2    14 1   
     7     2    15 1   
     8     3     4 1   
     9     3    16 1   
    10     3    17 1   
    11     4     5 1   
    12     4    18 1   
    13     4    19 1   
    14     5     6 1   
    15     5    20 1   
    16     5    21 1   
    17     6     7 1   
    18     6    22 1   
    19     6    23 1   
    20     7     8 1   
    21     7    10 1   
    22     7    24 1   
    23     8     9 1   
    24     8    25 1   
    25     8    26 1   
    26     9    27 1   
    27    10    28 1   
@<TRIPOS>SUBSTRUCTURE
     1 7F2         1 TEMP              0 ****  ****    0 ROOT
