@<TRIPOS>MOLECULE
7F3
   48    52     1     0     0
SMALL
abcg2


@<TRIPOS>ATOM
      1 C1           4.0340    -2.2960    -1.6080 ca         1 7F3      -0.067000
      2 C2           2.8290    -1.6030    -1.5740 ca         1 7F3      -0.104000
      3 C3           2.2210    -1.4130    -0.3480 ca         1 7F3      -0.066300
      4 C4           2.7980    -1.8800     0.8250 ca         1 7F3      -0.245900
      5 C5           3.9970    -2.5620     0.7670 ca         1 7F3       0.216000
      6 C6           4.6240    -2.7800    -0.4450 ca         1 7F3      -0.151000
      7 F7           4.5650    -3.0150     1.8930 f          1 7F3      -0.173000
      8 C8           1.9090    -1.4520     1.9180 ce         1 7F3       0.704800
      9 N9           0.8950    -0.7780     1.4960 n2         1 7F3      -0.688900
     10 C10          0.9420    -0.6950     0.0470 c5         1 7F3       0.282100
     11 C11         -0.3300    -1.3350    -0.4990 ca         1 7F3      -0.082300
     12 C12         -0.3410    -2.4540    -1.3180 ca         1 7F3      -0.072000
     13 C13         -1.5410    -2.9970    -1.7600 ca         1 7F3      -0.157000
     14 C14         -2.7230    -2.4080    -1.3760 ca         1 7F3       0.189000
     15 C15         -2.7610    -1.2840    -0.5570 cp         1 7F3      -0.077000
     16 C16         -1.5460    -0.7690    -0.1250 ca         1 7F3      -0.043000
     17 C17         -4.0300    -0.6750    -0.1280 cp         1 7F3      -0.139000
     18 C18         -5.0510    -0.3340    -1.0100 ca         1 7F3       0.123400
     19 N19         -6.1770     0.2360    -0.6060 nb         1 7F3      -0.171500
     20 C20         -6.2930     0.4750     0.6910 ca         1 7F3       0.119900
     21 N21         -5.3910     0.2020     1.6210 nb         1 7F3      -0.171500
     22 C22         -4.2700    -0.3720     1.2080 ca         1 7F3       0.123400
     23 F23         -3.8810    -2.9450    -1.7890 f          1 7F3      -0.172000
     24 C24          1.0410     0.7500    -0.4230 ca         1 7F3      -0.032300
     25 C25          0.7620     1.0940    -1.7410 ca         1 7F3      -0.134000
     26 C26          0.9070     2.4110    -2.1410 ca         1 7F3       0.332900
     27 N27          1.2940     3.3820    -1.3230 nb         1 7F3      -0.621000
     28 C28          1.5520     3.0490    -0.0720 ca         1 7F3       0.234300
     29 C29          1.4440     1.7620     0.4350 ca         1 7F3      -0.088000
     30 C30          1.9600     4.1670     0.8520 c3         1 7F3       0.264700
     31 F31          2.1750     5.3070     0.2060 f          1 7F3      -0.105667
     32 F32          1.0150     4.3980     1.7750 f          1 7F3      -0.105667
     33 F33          3.0810     3.8620     1.5200 f          1 7F3      -0.105667
     34 N34          2.1620    -1.7010     3.2110 nv         1 7F3      -1.031200
     35 H1           4.5300    -2.4630    -2.5550 ha         1 7F3       0.125000
     36 H2           2.3930    -1.2300    -2.4910 ha         1 7F3       0.129000
     37 H6           5.5630    -3.3170    -0.4820 ha         1 7F3       0.140000
     38 H341         2.8350    -2.3960     3.4790 hn         1 7F3       0.497000
     39 H342         1.4530    -1.4810     3.8900 hn         1 7F3       0.497000
     40 H12          0.5810    -2.9270    -1.6260 ha         1 7F3       0.122000
     41 H16         -1.5520     0.1090     0.5100 ha         1 7F3       0.137000
     42 H13         -1.5510    -3.8750    -2.3940 ha         1 7F3       0.136000
     43 H18         -4.9500    -0.5060    -2.0760 h4         1 7F3       0.031100
     44 H22         -3.5330    -0.6100     1.9680 h4         1 7F3       0.031100
     45 H20         -7.2140     0.9420     1.0230 h5         1 7F3       0.052100
     46 H25          0.4250     0.3550    -2.4580 ha         1 7F3       0.130000
     47 H29          1.6600     1.5480     1.4720 ha         1 7F3       0.155000
     48 H26          0.6970     2.6950    -3.1650 h4         1 7F3       0.029100
@<TRIPOS>BOND
     1     1     2 ar  
     2     1     6 ar  
     3     1    35 1   
     4     2     3 ar  
     5     2    36 1   
     6     3     4 ar  
     7     3    10 1   
     8     4     5 ar  
     9     4     8 1   
    10     5     6 ar  
    11     5     7 1   
    12     6    37 1   
    13     8     9 2   
    14     8    34 1   
    15     9    10 1   
    16    10    11 1   
    17    10    24 1   
    18    11    12 ar  
    19    11    16 ar  
    20    12    13 ar  
    21    12    40 1   
    22    13    14 ar  
    23    13    42 1   
    24    14    15 ar  
    25    14    23 1   
    26    15    16 ar  
    27    15    17 1   
    28    16    41 1   
    29    17    18 ar  
    30    17    22 ar  
    31    18    19 ar  
    32    18    43 1   
    33    19    20 ar  
    34    20    21 ar  
    35    20    45 1   
    36    21    22 ar  
    37    22    44 1   
    38    24    25 ar  
    39    24    29 ar  
    40    25    26 ar  
    41    25    46 1   
    42    26    27 ar  
    43    26    48 1   
    44    27    28 ar  
    45    28    29 ar  
    46    28    30 1   
    47    29    47 1   
    48    30    31 1   
    49    30    32 1   
    50    30    33 1   
    51    34    38 1   
    52    34    39 1   
@<TRIPOS>SUBSTRUCTURE
     1 7F3         1 TEMP              0 ****  ****    0 ROOT
