@<TRIPOS>MOLECULE
7F3
   48    52     1     0     0
SMALL
No Charge or Current Charge


@<TRIPOS>ATOM
      1 C1           3.9690    -2.2250    -1.7810 ca         1 7F3      -0.067000
      2 C2           2.7460    -1.5380    -1.6210 ca         1 7F3      -0.104000
      3 C3           2.2240    -1.3940    -0.3240 ca         1 7F3      -0.066300
      4 C4           2.8900    -1.8920     0.7630 ca         1 7F3      -0.245900
      5 C5           4.1050    -2.5770     0.6360 ca         1 7F3       0.216000
      6 C6           4.6450    -2.7460    -0.6530 ca         1 7F3      -0.151000
      7 F7           4.7510    -3.0730     1.7140 f          1 7F3      -0.173000
      8 C8           2.0880    -1.5360     1.9250 ce         1 7F3       0.704800
      9 N9           1.0190    -0.8640     1.6740 n2         1 7F3      -0.688900
     10 C10          0.9560    -0.7130     0.1650 c5         1 7F3       0.282100
     11 C11         -0.3340    -1.4010    -0.3290 ca         1 7F3      -0.082300
     12 C12         -0.3270    -2.6570    -0.9770 ca         1 7F3      -0.072000
     13 C13         -1.5280    -3.2450    -1.4040 ca         1 7F3      -0.157000
     14 C14         -2.7520    -2.5980    -1.1880 ca         1 7F3       0.189000
     15 C15         -2.8040    -1.3420    -0.5290 cp         1 7F3      -0.077000
     16 C16         -1.5790    -0.7730    -0.1010 ca         1 7F3      -0.043000
     17 C17         -4.0940    -0.6230    -0.2720 cp         1 7F3      -0.139000
     18 C18         -5.1450    -0.5720    -1.2230 ca         1 7F3       0.123400
     19 N19         -6.2990     0.0860    -0.9900 nb         1 7F3      -0.171500
     20 C20         -6.4100     0.7020     0.2040 ca         1 7F3       0.119900
     21 N21         -5.4830     0.7300     1.1840 nb         1 7F3      -0.171500
     22 C22         -4.3320     0.0710     0.9420 ca         1 7F3       0.123400
     23 F23         -3.8850    -3.2190    -1.5880 f          1 7F3      -0.172000
     24 C24          1.0010     0.7630    -0.2860 ca         1 7F3      -0.032300
     25 C25          0.5660     1.1470    -1.5720 ca         1 7F3      -0.134000
     26 C26          0.6310     2.4940    -1.9600 ca         1 7F3       0.332900
     27 N27          1.1060     3.4690    -1.1540 nb         1 7F3      -0.621000
     28 C28          1.5410     3.1230     0.0870 ca         1 7F3       0.234300
     29 C29          1.5050     1.7890     0.5440 ca         1 7F3      -0.088000
     30 C30          2.0910     4.2290     1.0090 c3         1 7F3       0.264700
     31 F31          2.0710     5.4610     0.4450 f          1 7F3      -0.105667
     32 F32          1.3800     4.3160     2.1580 f          1 7F3      -0.105667
     33 F33          3.3750     3.9860     1.3630 f          1 7F3      -0.105667
     34 N34          2.5080    -1.8380     3.1710 nv         1 7F3      -1.031200
     35 H1           4.3910    -2.3540    -2.7760 ha         1 7F3       0.125000
     36 H2           2.2200    -1.1370    -2.4840 ha         1 7F3       0.129000
     37 H6           5.5860    -3.2750    -0.7770 ha         1 7F3       0.140000
     38 H341         3.1770    -2.5950     3.2290 hn         1 7F3       0.497000
     39 H342         1.7830    -1.8210     3.8770 hn         1 7F3       0.497000
     40 H12          0.6010    -3.1950    -1.1500 ha         1 7F3       0.122000
     41 H16         -1.5960     0.1860     0.4110 ha         1 7F3       0.137000
     42 H13         -1.5130    -4.2140    -1.8980 ha         1 7F3       0.136000
     43 H18         -5.0530    -1.0510    -2.1960 h4         1 7F3       0.031100
     44 H22         -3.5880     0.0910     1.7370 h4         1 7F3       0.031100
     45 H20         -7.3400     1.2330     0.3960 h5         1 7F3       0.052100
     46 H25          0.1780     0.4150    -2.2740 ha         1 7F3       0.130000
     47 H29          1.8720     1.5650     1.5420 ha         1 7F3       0.155000
     48 H26          0.2950     2.8030    -2.9490 h4         1 7F3       0.029100
@<TRIPOS>BOND
     1     1     2 ar  
     2     1     6 ar  
     3     1    35 1   
     4     2     3 ar  
     5     2    36 1   
     6     3     4 ar  
     7     3    10 1   
     8     4     5 ar  
     9     4     8 1   
    10     5     6 ar  
    11     5     7 1   
    12     6    37 1   
    13     8     9 2   
    14     8    34 1   
    15     9    10 1   
    16    10    11 1   
    17    10    24 1   
    18    11    12 ar  
    19    11    16 ar  
    20    12    13 ar  
    21    12    40 1   
    22    13    14 ar  
    23    13    42 1   
    24    14    15 ar  
    25    14    23 1   
    26    15    16 ar  
    27    15    17 1   
    28    16    41 1   
    29    17    18 ar  
    30    17    22 ar  
    31    18    19 ar  
    32    18    43 1   
    33    19    20 ar  
    34    20    21 ar  
    35    20    45 1   
    36    21    22 ar  
    37    22    44 1   
    38    24    25 ar  
    39    24    29 ar  
    40    25    26 ar  
    41    25    46 1   
    42    26    27 ar  
    43    26    48 1   
    44    27    28 ar  
    45    28    29 ar  
    46    28    30 1   
    47    29    47 1   
    48    30    31 1   
    49    30    32 1   
    50    30    33 1   
    51    34    38 1   
    52    34    39 1   
@<TRIPOS>SUBSTRUCTURE
     1 7F3         1 TEMP              0 ****  ****    0 ROOT
