@<TRIPOS>MOLECULE
7F4
   21    21     1     0     0
SMALL
No Charge or Current Charge


@<TRIPOS>ATOM
      1 O           -1.6470    -1.4410    -0.7970 o          1 7F4      -0.552000
      2 C           -0.7590    -0.8770    -0.1720 c          1 7F4       0.562000
      3 NZ           0.3300    -1.6090     0.2480 ns         1 7F4      -0.514900
      4 CE           1.6160    -1.0510     0.6670 c3         1 7F4       0.115000
      5 CD           2.1830    -0.0110    -0.3250 c3         1 7F4      -0.098400
      6 CG           1.5780     1.4050    -0.1880 c3         1 7F4      -0.075400
      7 CB           0.0780     1.5300    -0.5450 c3         1 7F4      -0.070400
      8 CA          -0.8560     0.6270     0.2980 c3         1 7F4       0.091500
      9 N           -2.2400     1.2100     0.3060 n8         1 7F4      -0.982200
     10 H1           0.3040    -2.5930     0.0080 hn         1 7F4       0.315500
     11 H2           1.5160    -0.6090     1.6670 h1         1 7F4       0.043200
     12 H3           2.3260    -1.8850     0.7430 h1         1 7F4       0.043200
     13 H4           3.2620     0.0700    -0.1440 hc         1 7F4       0.050200
     14 H5           2.0700    -0.3740    -1.3540 hc         1 7F4       0.050200
     15 H6           1.7310     1.7610     0.8390 hc         1 7F4       0.040700
     16 H7           2.1430     2.0870    -0.8350 hc         1 7F4       0.040700
     17 H8          -0.2060     2.5810    -0.4080 hc         1 7F4       0.056200
     18 H9          -0.0650     1.3080    -1.6100 hc         1 7F4       0.056200
     19 H10         -0.5110     0.6570     1.3410 h1         1 7F4       0.024700
     20 H11         -2.8480     0.6320     0.9010 hn         1 7F4       0.402500
     21 H12         -2.2260     2.1190     0.7840 hn         1 7F4       0.402500
@<TRIPOS>BOND
     1     1     2 2   
     2     2     3 1   
     3     2     8 1   
     4     3     4 1   
     5     3    10 1   
     6     4     5 1   
     7     4    11 1   
     8     4    12 1   
     9     5     6 1   
    10     5    13 1   
    11     5    14 1   
    12     6     7 1   
    13     6    15 1   
    14     6    16 1   
    15     7     8 1   
    16     7    17 1   
    17     7    18 1   
    18     8     9 1   
    19     8    19 1   
    20     9    20 1   
    21     9    21 1   
@<TRIPOS>SUBSTRUCTURE
     1 7F4         1 TEMP              0 ****  ****    0 ROOT
