@<TRIPOS>MOLECULE
7F4
   21    21     1     0     0
SMALL
bcc


@<TRIPOS>ATOM
      1 O           -1.8420    -1.3800    -0.4930 o          1 7F4      -0.627500
      2 C           -0.8350    -0.8440    -0.0490 c          1 7F4       0.704500
      3 NZ           0.3160    -1.5200     0.0970 ns         1 7F4      -0.581900
      4 CE           1.5820    -1.0220     0.6010 c3         1 7F4       0.115000
      5 CD           2.2330     0.0330    -0.2840 c3         1 7F4      -0.098400
      6 CG           1.5750     1.4030    -0.1880 c3         1 7F4      -0.075400
      7 CB           0.0970     1.4480    -0.5500 c3         1 7F4      -0.070400
      8 CA          -0.8200     0.6220     0.3660 c3         1 7F4       0.091500
      9 N           -2.1690     1.1500     0.2820 n8         1 7F4      -0.871800
     10 H1           0.2940    -2.4820    -0.2040 hn         1 7F4       0.315500
     11 H2           1.4630    -0.6370     1.6190 h1         1 7F4       0.043200
     12 H3           2.2360    -1.8880     0.6770 h1         1 7F4       0.043200
     13 H4           3.2800     0.1270     0.0160 hc         1 7F4       0.050200
     14 H5           2.2350    -0.3220    -1.3190 hc         1 7F4       0.050200
     15 H6           1.6960     1.7780     0.8340 hc         1 7F4       0.040700
     16 H7           2.1130     2.1030    -0.8320 hc         1 7F4       0.040700
     17 H8          -0.2310     2.4890    -0.4830 hc         1 7F4       0.056200
     18 H9          -0.0560     1.1480    -1.5910 hc         1 7F4       0.056200
     19 H10         -0.4090     0.6730     1.3890 h1         1 7F4       0.024700
     20 H11         -2.8040     0.5870     0.8330 hn         1 7F4       0.347300
     21 H12         -2.1760     2.0710     0.7020 hn         1 7F4       0.347300
@<TRIPOS>BOND
     1     1     2 2   
     2     2     3 1   
     3     2     8 1   
     4     3     4 1   
     5     3    10 1   
     6     4     5 1   
     7     4    11 1   
     8     4    12 1   
     9     5     6 1   
    10     5    13 1   
    11     5    14 1   
    12     6     7 1   
    13     6    15 1   
    14     6    16 1   
    15     7     8 1   
    16     7    17 1   
    17     7    18 1   
    18     8     9 1   
    19     8    19 1   
    20     9    20 1   
    21     9    21 1   
@<TRIPOS>SUBSTRUCTURE
     1 7F4         1 TEMP              0 ****  ****    0 ROOT
