@<TRIPOS>MOLECULE
7F5
   47    49     1     0     0
SMALL
No Charge or Current Charge


@<TRIPOS>ATOM
      1 N01          7.3270    -2.2490    -1.0720 nc         1 7F5      -0.666000
      2 C02          6.0730    -1.8460    -1.2640 cd         1 7F5       0.431400
      3 N03          5.6910    -1.0560    -0.1970 na         1 7F5      -0.193000
      4 C04          6.8020    -0.7790     0.5780 cd         1 7F5      -0.152300
      5 C05          7.7700    -1.5990     0.0550 cc         1 7F5       0.224900
      6 C06          6.8550     0.1800     1.7420 c3         1 7F5      -0.009800
      7 C1          -5.8680    -0.5180     0.0470 ca         1 7F5      -0.050300
      8 N11          5.3170     0.9850    -1.3610 nb         1 7F5      -0.191000
      9 C12          4.8640     0.0160    -0.5220 ca         1 7F5       0.243500
     10 N13          3.6230     0.0480     0.0220 nb         1 7F5      -0.212000
     11 C14          2.8040     1.0780    -0.2720 ca         1 7F5       0.159300
     12 C15          3.2140     2.1060    -1.1300 ca         1 7F5      -0.233000
     13 C16          4.5050     2.0160    -1.6610 ca         1 7F5       0.135900
     14 C17          1.4220     1.0700     0.3560 c3         1 7F5      -0.139700
     15 C18          0.3820     0.4030    -0.5600 c3         1 7F5       0.165800
     16 N19         -0.9430     0.4400     0.0810 n7         1 7F5      -0.866400
     17 C2          -6.6640     0.6370    -0.0800 ca         1 7F5      -0.150000
     18 C20         -2.0360    -0.1540    -0.7100 c3         1 7F5       0.160800
     19 C21         -3.3700    -0.0410     0.0540 c3         1 7F5      -0.076400
     20 C22         -4.5610    -0.6390    -0.7240 c3         1 7F5      -0.034100
     21 C3          -7.8660     0.7470     0.6370 ca         1 7F5       0.172000
     22 C4          -8.2850    -0.2890     1.4850 ca         1 7F5      -0.153000
     23 C5          -7.4950    -1.4440     1.6190 ca         1 7F5      -0.083000
     24 C6          -6.2900    -1.5560     0.9020 ca         1 7F5      -0.125000
     25 F7          -8.6240     1.8580     0.5090 f          1 7F5      -0.181000
     26 H02          5.4190    -2.0750    -2.0990 h5         1 7F5       0.071100
     27 H05          8.7880    -1.7320     0.3960 h4         1 7F5       0.039100
     28 H06          5.9520     0.1040     2.3590 hc         1 7F5       0.051367
     29 H06A         7.7180    -0.0280     2.3850 hc         1 7F5       0.051367
     30 H06B         6.9390     1.2160     1.3940 hc         1 7F5       0.051367
     31 H16          4.8970     2.7750    -2.3360 h4         1 7F5       0.032100
     32 H15          2.5610     2.9380    -1.3750 ha         1 7F5       0.143000
     33 H17          1.4460     0.5470     1.3200 hc         1 7F5       0.069200
     34 H17A         1.1060     2.0980     0.5690 hc         1 7F5       0.069200
     35 H18          0.3590     0.9350    -1.5220 h1         1 7F5       0.040200
     36 H18A         0.6880    -0.6340    -0.7570 h1         1 7F5       0.040200
     37 HN19        -0.8820    -0.0690     0.9710 hn         1 7F5       0.408000
     38 H20         -2.1310     0.3620    -1.6760 h1         1 7F5       0.030200
     39 H20A        -1.8280    -1.2140    -0.9150 h1         1 7F5       0.030200
     40 H21         -3.2810    -0.5530     1.0200 hc         1 7F5       0.051700
     41 H21A        -3.5750     1.0160     0.2670 hc         1 7F5       0.051700
     42 H22         -4.3520    -1.6920    -0.9490 hc         1 7F5       0.049200
     43 H22A        -4.6490    -0.1320    -1.6940 hc         1 7F5       0.049200
     44 H6          -5.6820    -2.4520     1.0120 ha         1 7F5       0.116000
     45 H5          -7.8140    -2.2500     2.2760 ha         1 7F5       0.117000
     46 H4          -9.2170    -0.1960     2.0360 ha         1 7F5       0.132000
     47 H2          -6.3530     1.4500    -0.7310 ha         1 7F5       0.130000
@<TRIPOS>BOND
     1     1     2 2   
     2     1     5 1   
     3     2     3 1   
     4     2    26 1   
     5     3     4 1   
     6     3     9 1   
     7     4     5 2   
     8     4     6 1   
     9     5    27 1   
    10     6    28 1   
    11     6    29 1   
    12     6    30 1   
    13     7    17 ar  
    14     7    20 1   
    15     7    24 ar  
    16     8     9 ar  
    17     8    13 ar  
    18     9    10 ar  
    19    10    11 ar  
    20    11    12 ar  
    21    11    14 1   
    22    12    13 ar  
    23    12    32 1   
    24    13    31 1   
    25    14    15 1   
    26    14    33 1   
    27    14    34 1   
    28    15    16 1   
    29    15    35 1   
    30    15    36 1   
    31    16    18 1   
    32    16    37 1   
    33    17    21 ar  
    34    17    47 1   
    35    18    19 1   
    36    18    38 1   
    37    18    39 1   
    38    19    20 1   
    39    19    40 1   
    40    19    41 1   
    41    20    42 1   
    42    20    43 1   
    43    21    22 ar  
    44    21    25 1   
    45    22    23 ar  
    46    22    46 1   
    47    23    24 ar  
    48    23    45 1   
    49    24    44 1   
@<TRIPOS>SUBSTRUCTURE
     1 7F5         1 TEMP              0 ****  ****    0 ROOT
