@<TRIPOS>MOLECULE
7F5
   47    49     1     0     0
SMALL
abcg2


@<TRIPOS>ATOM
      1 N01          5.6900    -2.9120    -0.2890 nc         1 7F5      -0.666000
      2 C02          4.8060    -1.9750    -0.1410 cd         1 7F5       0.431400
      3 N03          5.3730    -0.7300    -0.1890 na         1 7F5      -0.193000
      4 C04          6.7360    -0.9110    -0.3790 cd         1 7F5      -0.152300
      5 C05          6.8910    -2.2630    -0.4310 cc         1 7F5       0.224900
      6 C06          7.7740     0.1490    -0.4510 c3         1 7F5      -0.009800
      7 C1          -5.6650    -0.7740    -0.2490 ca         1 7F5      -0.050300
      8 N11          5.2370     1.5690    -0.4780 nb         1 7F5      -0.191000
      9 C12          4.6470     0.4620    -0.0750 ca         1 7F5       0.243500
     10 N13          3.4300     0.3440     0.4220 nb         1 7F5      -0.212000
     11 C14          2.7020     1.4520     0.5210 ca         1 7F5       0.159300
     12 C15          3.2280     2.6800     0.1320 ca         1 7F5      -0.233000
     13 C16          4.5190     2.6800    -0.3600 ca         1 7F5       0.135900
     14 C17          1.3110     1.3140     1.0500 c3         1 7F5      -0.139700
     15 C18          0.4190     0.5210     0.0950 c3         1 7F5       0.165800
     16 N19         -0.9390     0.4790     0.5940 n7         1 7F5      -0.866400
     17 C2          -6.3910     0.2710    -0.8150 ca         1 7F5      -0.150000
     18 C20         -1.8330    -0.2840    -0.2570 c3         1 7F5       0.160800
     19 C21         -3.2750    -0.1560     0.2060 c3         1 7F5      -0.076400
     20 C22         -4.2320    -0.9920    -0.6450 c3         1 7F5      -0.034100
     21 C3          -7.6930     0.4890    -0.4100 ca         1 7F5       0.172000
     22 C4          -8.3150    -0.2920     0.5440 ca         1 7F5      -0.153000
     23 C5          -7.5870    -1.3330     1.1060 ca         1 7F5      -0.083000
     24 C6          -6.2760    -1.5720     0.7160 ca         1 7F5      -0.125000
     25 F7          -8.3790     1.5020    -0.9690 f          1 7F5      -0.181000
     26 H02          3.7450    -2.1110    -0.0080 h5         1 7F5       0.071100
     27 H05          7.8180    -2.8010    -0.5610 h4         1 7F5       0.039100
     28 H06          7.7580     0.7990     0.4230 hc         1 7F5       0.051367
     29 H06A         8.7500    -0.3310    -0.4950 hc         1 7F5       0.051367
     30 H06B         7.6650     0.7830    -1.3290 hc         1 7F5       0.051367
     31 H16          4.9940     3.6000    -0.6770 h4         1 7F5       0.032100
     32 H15          2.6570     3.5930     0.2140 ha         1 7F5       0.143000
     33 H17          1.3530     0.8030     2.0160 hc         1 7F5       0.069200
     34 H17A         0.8770     2.3000     1.2190 hc         1 7F5       0.069200
     35 H18          0.4070     1.0160    -0.8820 h1         1 7F5       0.040200
     36 H18A         0.8570    -0.4750    -0.0660 h1         1 7F5       0.040200
     37 HN19        -0.9380     0.0630     1.5190 hn         1 7F5       0.408000
     38 H20         -1.7500     0.1100    -1.2750 h1         1 7F5       0.030200
     39 H20A        -1.5530    -1.3480    -0.3190 h1         1 7F5       0.030200
     40 H21         -3.3600    -0.4670     1.2530 hc         1 7F5       0.051700
     41 H21A        -3.5700     0.8960     0.1690 hc         1 7F5       0.051700
     42 H22         -3.9760    -2.0500    -0.5510 hc         1 7F5       0.049200
     43 H22A        -4.1000    -0.7300    -1.6990 hc         1 7F5       0.049200
     44 H6          -5.7230    -2.3890     1.1620 ha         1 7F5       0.116000
     45 H5          -8.0520    -1.9620     1.8530 ha         1 7F5       0.117000
     46 H4          -9.3380    -0.0970     0.8380 ha         1 7F5       0.132000
     47 H2          -5.9450     0.9080    -1.5690 ha         1 7F5       0.130000
@<TRIPOS>BOND
     1     1     2 2   
     2     1     5 1   
     3     2     3 1   
     4     2    26 1   
     5     3     4 1   
     6     3     9 1   
     7     4     5 2   
     8     4     6 1   
     9     5    27 1   
    10     6    28 1   
    11     6    29 1   
    12     6    30 1   
    13     7    17 ar  
    14     7    20 1   
    15     7    24 ar  
    16     8     9 ar  
    17     8    13 ar  
    18     9    10 ar  
    19    10    11 ar  
    20    11    12 ar  
    21    11    14 1   
    22    12    13 ar  
    23    12    32 1   
    24    13    31 1   
    25    14    15 1   
    26    14    33 1   
    27    14    34 1   
    28    15    16 1   
    29    15    35 1   
    30    15    36 1   
    31    16    18 1   
    32    16    37 1   
    33    17    21 ar  
    34    17    47 1   
    35    18    19 1   
    36    18    38 1   
    37    18    39 1   
    38    19    20 1   
    39    19    40 1   
    40    19    41 1   
    41    20    42 1   
    42    20    43 1   
    43    21    22 ar  
    44    21    25 1   
    45    22    23 ar  
    46    22    46 1   
    47    23    24 ar  
    48    23    45 1   
    49    24    44 1   
@<TRIPOS>SUBSTRUCTURE
     1 7F5         1 TEMP              0 ****  ****    0 ROOT
