@<TRIPOS>MOLECULE
7F6
   30    31     1     0     0
SMALL
No Charge or Current Charge


@<TRIPOS>ATOM
      1 C1           0.4160     0.2910     0.5580 c3         1 7F6       0.188100
      2 C2          -0.4770     0.1810    -0.7210 c3         1 7F6       0.188100
      3 C3          -1.9530    -0.0770    -0.3970 ca         1 7F6      -0.108300
      4 C4          -2.5220    -1.3350    -0.6870 ca         1 7F6      -0.096750
      5 C5          -3.8720    -1.5930    -0.3920 ca         1 7F6      -0.107000
      6 C6          -4.6680    -0.5960     0.1960 ca         1 7F6      -0.105000
      7 C8          -2.7620     0.9190     0.1940 ca         1 7F6      -0.096750
      8 C7          -4.1120     0.6590     0.4890 ca         1 7F6      -0.107000
      9 O1           0.2560     1.5820     1.1780 oh         1 7F6      -0.645000
     10 C9           1.8970     0.0270     0.2750 ca         1 7F6      -0.108300
     11 C14          2.7050     0.9890    -0.3700 ca         1 7F6      -0.096750
     12 C13          4.0630     0.7250    -0.6240 ca         1 7F6      -0.107000
     13 C12          4.6260    -0.5020    -0.2370 ca         1 7F6      -0.105000
     14 C11          3.8310    -1.4650     0.4050 ca         1 7F6      -0.107000
     15 C10          2.4740    -1.2020     0.6600 ca         1 7F6      -0.096750
     16 H1           0.0670    -0.4890     1.2520 h1         1 7F6       0.085700
     17 H2          -0.1080    -0.6790    -1.2980 h1         1 7F6       0.085700
     18 H4          -1.9190    -2.1170    -1.1420 ha         1 7F6       0.106500
     19 H5          -4.3010    -2.5670    -0.6200 ha         1 7F6       0.113000
     20 H6          -5.7130    -0.7970     0.4240 ha         1 7F6       0.113000
     21 H7          -2.3470     1.8970     0.4270 ha         1 7F6       0.106500
     22 H8          -4.7270     1.4330     0.9440 ha         1 7F6       0.113000
     23 H9           0.8630     1.6000     1.9490 ho         1 7F6       0.439000
     24 H10          2.2840     1.9430    -0.6760 ha         1 7F6       0.106500
     25 H11          4.6770     1.4720    -1.1210 ha         1 7F6       0.113000
     26 H12          5.6770    -0.7050    -0.4330 ha         1 7F6       0.113000
     27 H13          4.2660    -2.4160     0.7060 ha         1 7F6       0.113000
     28 H14          1.8700    -1.9590     1.1560 ha         1 7F6       0.106500
     29 O2          -0.3440     1.3740    -1.5080 oh         1 7F6      -0.645000
     30 H3          -0.2080     2.0790    -0.8360 ho         1 7F6       0.439000
@<TRIPOS>BOND
     1     1     2 1   
     2     1     9 1   
     3     1    10 1   
     4     1    16 1   
     5     2     3 1   
     6     2    17 1   
     7     2    29 1   
     8     3     4 ar  
     9     3     7 ar  
    10     4     5 ar  
    11     4    18 1   
    12     5     6 ar  
    13     5    19 1   
    14     6     8 ar  
    15     6    20 1   
    16     7     8 ar  
    17     7    21 1   
    18     8    22 1   
    19     9    23 1   
    20    10    11 ar  
    21    10    15 ar  
    22    11    12 ar  
    23    11    24 1   
    24    12    13 ar  
    25    12    25 1   
    26    13    14 ar  
    27    13    26 1   
    28    14    15 ar  
    29    14    27 1   
    30    15    28 1   
    31    29    30 1   
@<TRIPOS>SUBSTRUCTURE
     1 7F6         1 TEMP              0 ****  ****    0 ROOT
