@<TRIPOS>MOLECULE
7F6
   30    31     1     0     0
SMALL
bcc


@<TRIPOS>ATOM
      1 C1           0.4000     0.0550     0.6500 c3         1 7F6       0.164900
      2 C2          -0.4070     0.0620    -0.6710 c3         1 7F6       0.164900
      3 C3          -1.8830    -0.0810    -0.3830 ca         1 7F6      -0.108300
      4 C4          -2.4250    -1.3580    -0.2620 ca         1 7F6      -0.114750
      5 C5          -3.7640    -1.5400     0.0520 ca         1 7F6      -0.125000
      6 C6          -4.5880    -0.4390     0.2450 ca         1 7F6      -0.123000
      7 C8          -2.7160     1.0160    -0.1840 ca         1 7F6      -0.114750
      8 C7          -4.0590     0.8390     0.1240 ca         1 7F6      -0.125000
      9 O1           0.0680     1.1460     1.4720 oh         1 7F6      -0.582800
     10 C9           1.8780    -0.0720     0.3630 ca         1 7F6      -0.108300
     11 C14          2.6980     1.0340     0.1660 ca         1 7F6      -0.114750
     12 C13          4.0430     0.8730    -0.1410 ca         1 7F6      -0.125000
     13 C12          4.5870    -0.3990    -0.2630 ca         1 7F6      -0.123000
     14 C11          3.7760    -1.5100    -0.0730 ca         1 7F6      -0.125000
     15 C10          2.4340    -1.3430     0.2400 ca         1 7F6      -0.114750
     16 H1           0.0860    -0.8350     1.2030 h1         1 7F6       0.085700
     17 H2          -0.0870    -0.8170    -1.2380 h1         1 7F6       0.085700
     18 H4          -1.7920    -2.2240    -0.4190 ha         1 7F6       0.124500
     19 H5          -4.1650    -2.5420     0.1390 ha         1 7F6       0.131000
     20 H6          -5.6350    -0.5750     0.4840 ha         1 7F6       0.131000
     21 H7          -2.3420     2.0300    -0.2690 ha         1 7F6       0.124500
     22 H8          -4.6920     1.7040     0.2720 ha         1 7F6       0.131000
     23 H9           0.4330     1.9600     1.1110 ho         1 7F6       0.400000
     24 H10          2.3130     2.0430     0.2530 ha         1 7F6       0.124500
     25 H11          4.6670     1.7450    -0.2870 ha         1 7F6       0.131000
     26 H12          5.6360    -0.5220    -0.5000 ha         1 7F6       0.131000
     27 H13          4.1880    -2.5060    -0.1610 ha         1 7F6       0.131000
     28 H14          1.8110    -2.2170     0.3950 ha         1 7F6       0.124500
     29 O2          -0.0850     1.1680    -1.4760 oh         1 7F6      -0.582800
     30 H3          -0.4390     1.9760    -1.0910 ho         1 7F6       0.400000
@<TRIPOS>BOND
     1     1     2 1   
     2     1     9 1   
     3     1    10 1   
     4     1    16 1   
     5     2     3 1   
     6     2    17 1   
     7     2    29 1   
     8     3     4 ar  
     9     3     7 ar  
    10     4     5 ar  
    11     4    18 1   
    12     5     6 ar  
    13     5    19 1   
    14     6     8 ar  
    15     6    20 1   
    16     7     8 ar  
    17     7    21 1   
    18     8    22 1   
    19     9    23 1   
    20    10    11 ar  
    21    10    15 ar  
    22    11    12 ar  
    23    11    24 1   
    24    12    13 ar  
    25    12    25 1   
    26    13    14 ar  
    27    13    26 1   
    28    14    15 ar  
    29    14    27 1   
    30    15    28 1   
    31    29    30 1   
@<TRIPOS>SUBSTRUCTURE
     1 7F6         1 TEMP              0 ****  ****    0 ROOT
