@<TRIPOS>MOLECULE
7F9
   45    46     1     0     0
SMALL
No Charge or Current Charge


@<TRIPOS>ATOM
      1 C1           4.0190    -0.0900    -1.4030 ca         1 7F9      -0.251000
      2 N1          -0.5320    -0.3060     0.2020 n          1 7F9      -0.211400
      3 O1          -0.0260    -1.6140    -1.6470 o          1 7F9      -0.567100
      4 C2           4.6220    -0.4180    -0.1830 ca         1 7F9       0.192100
      5 N2           0.7120     3.2540     0.5900 ns         1 7F9      -0.510900
      6 O2          -5.9680    -1.8540     0.0360 os         1 7F9      -0.342100
      7 C3           3.8520    -0.9260     0.8680 ca         1 7F9      -0.259000
      8 C4           2.4700    -1.0960     0.7080 ca         1 7F9       0.194100
      9 O4           5.9620    -0.2580    -0.0180 oh         1 7F9      -0.532100
     10 C5           1.8470    -0.7400    -0.5040 ca         1 7F9      -0.216600
     11 O5           0.1010     2.0890    -1.2640 o          1 7F9      -0.600100
     12 C6           2.6340    -0.2600    -1.5690 ca         1 7F9       0.018000
     13 C7           0.3690    -0.9140    -0.7200 c          1 7F9       0.650700
     14 C8          -1.9260    -0.6770     0.2960 ca         1 7F9      -0.093000
     15 C9          -2.2990    -2.0360     0.2330 ca         1 7F9      -0.061500
     16 C10         -3.6530    -2.4080     0.1670 ca         1 7F9      -0.172500
     17 C11         -4.6560    -1.4310     0.1030 ca         1 7F9       0.143100
     18 C12         -4.2920    -0.0690     0.0790 ca         1 7F9      -0.172500
     19 C13         -2.9360     0.3000     0.1470 ca         1 7F9      -0.061500
     20 C14         -7.0690    -0.9300    -0.0380 c3         1 7F9       0.148900
     21 C15          0.2400     2.1280    -0.0480 c          1 7F9       0.569100
     22 C16          1.1020     4.4850    -0.0960 c3         1 7F9       0.105000
     23 C17         -0.0960     0.9490     0.8870 c3         1 7F9       0.033000
     24 C18          1.7000     5.5090     0.8800 c3         1 7F9      -0.112100
     25 H1           4.6130     0.2950    -2.2290 ha         1 7F9       0.121000
     26 H2           0.7970     3.2150     1.6000 hn         1 7F9       0.312500
     27 H3           4.3380    -1.1960     1.8010 ha         1 7F9       0.130000
     28 H4           2.3700    -1.8730     2.4500 ho         1 7F9       0.468000
     29 H5           6.3300     0.0970    -0.8540 ho         1 7F9       0.470000
     30 H6           2.1680    -0.0020    -2.5200 ha         1 7F9       0.139000
     31 H7          -1.5380    -2.8130     0.2630 ha         1 7F9       0.129000
     32 H8          -3.9250    -3.4600     0.1540 ha         1 7F9       0.123000
     33 H9          -5.0400     0.7140    -0.0080 ha         1 7F9       0.123000
     34 H10         -2.6810     1.3560     0.0820 ha         1 7F9       0.129000
     35 H11         -7.0870    -0.2730     0.8410 h1         1 7F9       0.040700
     36 H12         -6.9980    -0.3090    -0.9400 h1         1 7F9       0.040700
     37 H13         -8.0210    -1.4750    -0.0750 h1         1 7F9       0.040700
     38 H14          1.8420     4.2430    -0.8710 h1         1 7F9       0.051700
     39 H15          0.2180     4.9160    -0.5860 h1         1 7F9       0.051700
     40 H16         -0.8810     1.2850     1.5750 h1         1 7F9       0.070200
     41 H17          0.7870     0.7530     1.5030 h1         1 7F9       0.070200
     42 H18          0.9710     5.7790     1.6540 hc         1 7F9       0.042367
     43 H19          2.5940     5.1030     1.3680 hc         1 7F9       0.042367
     44 H20          1.9860     6.4220     0.3440 hc         1 7F9       0.042367
     45 O3           1.7510    -1.6460     1.7250 oh         1 7F9      -0.528100
@<TRIPOS>BOND
     1     1     4 ar  
     2     1    12 ar  
     3     1    25 1   
     4     2    13 1   
     5     2    14 1   
     6     2    23 1   
     7     3    13 2   
     8     4     7 ar  
     9     4     9 1   
    10     5    21 1   
    11     5    22 1   
    12     5    26 1   
    13     6    17 1   
    14     6    20 1   
    15     7     8 ar  
    16     7    27 1   
    17     8    10 ar  
    18     8    45 1   
    19     9    29 1   
    20    10    12 ar  
    21    10    13 1   
    22    11    21 2   
    23    12    30 1   
    24    14    15 ar  
    25    14    19 ar  
    26    15    16 ar  
    27    15    31 1   
    28    16    17 ar  
    29    16    32 1   
    30    17    18 ar  
    31    18    19 ar  
    32    18    33 1   
    33    19    34 1   
    34    20    35 1   
    35    20    36 1   
    36    20    37 1   
    37    21    23 1   
    38    22    24 1   
    39    22    38 1   
    40    22    39 1   
    41    23    40 1   
    42    23    41 1   
    43    24    42 1   
    44    24    43 1   
    45    24    44 1   
    46    28    45 1   
@<TRIPOS>SUBSTRUCTURE
     1 7F9         1 TEMP              0 ****  ****    0 ROOT
