@<TRIPOS>MOLECULE
7F9
   45    46     1     0     0
SMALL
abcg2


@<TRIPOS>ATOM
      1 C1           3.9770    -0.1400    -1.6650 ca         1 7F9      -0.251000
      2 N1          -0.3380    -0.3490     0.1990 n          1 7F9      -0.211400
      3 O1          -0.0660    -1.7500    -1.5460 o          1 7F9      -0.567100
      4 C2           4.6930    -0.6640    -0.5900 ca         1 7F9       0.192100
      5 N2           0.5070     3.1400     0.8700 ns         1 7F9      -0.510900
      6 O2          -5.8000    -1.3650     0.3680 os         1 7F9      -0.342100
      7 C3           4.0220    -1.2860     0.4580 ca         1 7F9      -0.259000
      8 C4           2.6360    -1.3750     0.4390 ca         1 7F9       0.194100
      9 O4           6.0330    -0.6030    -0.5130 oh         1 7F9      -0.532100
     10 C5           1.9040    -0.8350    -0.6220 ca         1 7F9      -0.216600
     11 O5           0.2250     2.0260    -1.0710 o          1 7F9      -0.600100
     12 C6           2.5960    -0.2420    -1.6690 ca         1 7F9       0.018000
     13 C7           0.4230    -1.0130    -0.7060 c          1 7F9       0.650700
     14 C8          -1.7420    -0.5830     0.2020 ca         1 7F9      -0.093000
     15 C9          -2.2530    -1.6510     0.9330 ca         1 7F9      -0.061500
     16 C10         -3.6120    -1.8920     0.9700 ca         1 7F9      -0.172500
     17 C11         -4.4930    -1.0590     0.2760 ca         1 7F9       0.143100
     18 C12         -3.9860     0.0130    -0.4540 ca         1 7F9      -0.172500
     19 C13         -2.6150     0.2390    -0.4910 ca         1 7F9      -0.061500
     20 C14         -6.7330    -0.5630    -0.3290 c3         1 7F9       0.148900
     21 C15          0.2930     2.0350     0.1490 c          1 7F9       0.569100
     22 C16          0.7140     4.4470     0.2760 c3         1 7F9       0.105000
     23 C17          0.1610     0.7580     0.9760 c3         1 7F9       0.033000
     24 C18          0.7220     5.5210     1.3470 c3         1 7F9      -0.112100
     25 H1           4.4890     0.3420    -2.4890 ha         1 7F9       0.121000
     26 H2           0.5650     3.0620     1.8740 hn         1 7F9       0.312500
     27 H3           4.5870    -1.7070     1.2830 ha         1 7F9       0.130000
     28 H4           2.5430    -2.2900     2.1140 ho         1 7F9       0.468000
     29 H5           6.3980    -0.1820    -1.3000 ho         1 7F9       0.470000
     30 H6           2.0430     0.1670    -2.5040 ha         1 7F9       0.139000
     31 H7          -1.5760    -2.2960     1.4790 ha         1 7F9       0.129000
     32 H8          -4.0030    -2.7270     1.5380 ha         1 7F9       0.123000
     33 H9          -4.6360     0.6780    -1.0060 ha         1 7F9       0.123000
     34 H10         -2.2320     1.0680    -1.0720 ha         1 7F9       0.129000
     35 H11         -6.7210     0.4730     0.0180 h1         1 7F9       0.040700
     36 H12         -6.5560    -0.5760    -1.4080 h1         1 7F9       0.040700
     37 H13         -7.7140    -0.9870    -0.1310 h1         1 7F9       0.040700
     38 H14          1.6560     4.4630    -0.2780 h1         1 7F9       0.051700
     39 H15         -0.0810     4.6440    -0.4450 h1         1 7F9       0.051700
     40 H16         -0.5120     0.9230     1.8190 h1         1 7F9       0.070200
     41 H17          1.1340     0.5280     1.4120 h1         1 7F9       0.070200
     42 H18         -0.2220     5.5430     1.8930 hc         1 7F9       0.042367
     43 H19          1.5290     5.3650     2.0640 hc         1 7F9       0.042367
     44 H20          0.8680     6.4990     0.8920 hc         1 7F9       0.042367
     45 O3           1.9460    -1.9790     1.4230 oh         1 7F9      -0.528100
@<TRIPOS>BOND
     1     1     4 ar  
     2     1    12 ar  
     3     1    25 1   
     4     2    13 1   
     5     2    14 1   
     6     2    23 1   
     7     3    13 2   
     8     4     7 ar  
     9     4     9 1   
    10     5    21 1   
    11     5    22 1   
    12     5    26 1   
    13     6    17 1   
    14     6    20 1   
    15     7     8 ar  
    16     7    27 1   
    17     8    10 ar  
    18     8    45 1   
    19     9    29 1   
    20    10    12 ar  
    21    10    13 1   
    22    11    21 2   
    23    12    30 1   
    24    14    15 ar  
    25    14    19 ar  
    26    15    16 ar  
    27    15    31 1   
    28    16    17 ar  
    29    16    32 1   
    30    17    18 ar  
    31    18    19 ar  
    32    18    33 1   
    33    19    34 1   
    34    20    35 1   
    35    20    36 1   
    36    20    37 1   
    37    21    23 1   
    38    22    24 1   
    39    22    38 1   
    40    22    39 1   
    41    23    40 1   
    42    23    41 1   
    43    24    42 1   
    44    24    43 1   
    45    24    44 1   
    46    28    45 1   
@<TRIPOS>SUBSTRUCTURE
     1 7F9         1 TEMP              0 ****  ****    0 ROOT
