@<TRIPOS>MOLECULE
7FA
   57    56     1     0     0
SMALL
abcg2


@<TRIPOS>ATOM
      1 C1          -6.0800     0.7430    -0.6440 c3         1 7FA      -0.457400
      2 P1          -7.4660    -0.3080    -0.2260 p5         1 7FA       1.528800
      3 C2          -4.9440     0.6530     0.3760 c3         1 7FA      -0.050400
      4 O2          -8.4430    -0.1700    -1.4730 os         1 7FA      -0.617400
      5 C3          -3.7960     1.5890     0.0190 c3         1 7FA      -0.071400
      6 C4          -2.6390     1.4920     1.0030 c3         1 7FA      -0.074400
      7 C5          -1.4850     2.4370     0.6610 c3         1 7FA      -0.042200
      8 C6          -0.3560     2.3030     1.6330 c2         1 7FA      -0.219200
      9 C7           0.8660     1.8250     1.3990 c2         1 7FA      -0.211200
     10 C8           1.4240     1.3490     0.0880 c3         1 7FA      -0.012000
     11 C9           2.6160     2.1700    -0.3110 c2         1 7FA      -0.215200
     12 CM          -9.8000    -0.6330    -1.4120 c3         1 7FA       0.202900
     13 C10          3.8760     1.7590    -0.4510 c2         1 7FA      -0.213200
     14 C11          4.4120     0.3670    -0.2850 c3         1 7FA      -0.012000
     15 C12          4.9770    -0.1420    -1.5810 c2         1 7FA      -0.213200
     16 C13          6.2470    -0.4470    -1.8430 c2         1 7FA      -0.216200
     17 C14          7.4060    -0.4020    -0.8960 c3         1 7FA      -0.044200
     18 C15          7.9270    -1.8020    -0.5650 c3         1 7FA      -0.073400
     19 C16          9.1080    -1.7860     0.3970 c3         1 7FA      -0.076400
     20 C17          9.6240    -3.1790     0.7350 c3         1 7FA      -0.075400
     21 C18         10.7780    -3.1600     1.7280 c3         1 7FA      -0.088100
     22 O1          -8.0740    -0.1610     1.1130 o          1 7FA      -0.709000
     23 F1          -6.8780    -1.7830    -0.4140 f          1 7FA      -0.335400
     24 H1          -5.7270     0.4820    -1.6450 hc         1 7FA       0.087200
     25 H2          -6.4640     1.7650    -0.6970 hc         1 7FA       0.087200
     26 H3          -5.3220     0.9020     1.3710 hc         1 7FA       0.051700
     27 H4          -4.5700    -0.3730     0.4300 hc         1 7FA       0.051700
     28 H5          -3.4370     1.3580    -0.9890 hc         1 7FA       0.040200
     29 H6          -4.1670     2.6190    -0.0150 hc         1 7FA       0.040200
     30 H7          -2.9990     1.7080     2.0150 hc         1 7FA       0.042700
     31 H8          -2.2630     0.4640     1.0250 hc         1 7FA       0.042700
     32 H9          -1.1500     2.2470    -0.3620 hc         1 7FA       0.044200
     33 H10         -1.8570     3.4670     0.6770 hc         1 7FA       0.044200
     34 H11         -0.5890     2.6000     2.6530 ha         1 7FA       0.167000
     35 H12          1.5590     1.7740     2.2330 ha         1 7FA       0.169000
     36 H13          1.6940     0.2940     0.1770 hc         1 7FA       0.050700
     37 H14          0.6670     1.4060    -0.6980 hc         1 7FA       0.050700
     38 H15          2.4090     3.2230    -0.4810 ha         1 7FA       0.169000
     39 H16        -10.3490    -0.1340    -0.6160 h1         1 7FA       0.047700
     40 H17        -10.2540    -0.3910    -2.3680 h1         1 7FA       0.047700
     41 H18         -9.8430    -1.7120    -1.2610 h1         1 7FA       0.047700
     42 H19          4.6180     2.5000    -0.7370 ha         1 7FA       0.169000
     43 H20          5.1780     0.3660     0.4940 hc         1 7FA       0.051200
     44 H21          3.6270    -0.3120     0.0570 hc         1 7FA       0.051200
     45 H22          4.2520    -0.2480    -2.3830 ha         1 7FA       0.168000
     46 H24          6.4810    -0.8000    -2.8430 ha         1 7FA       0.166000
     47 H26          8.2170     0.1800    -1.3470 hc         1 7FA       0.043700
     48 H27          7.1370     0.1130     0.0290 hc         1 7FA       0.043700
     49 H28          7.1120    -2.3910    -0.1320 hc         1 7FA       0.039700
     50 H29          8.2150    -2.3130    -1.4900 hc         1 7FA       0.039700
     51 H30          9.9220    -1.1910    -0.0320 hc         1 7FA       0.036700
     52 H31          8.8130    -1.2750     1.3200 hc         1 7FA       0.036700
     53 H32          8.8030    -3.7800     1.1390 hc         1 7FA       0.036700
     54 H33          9.9410    -3.6810    -0.1850 hc         1 7FA       0.036700
     55 H34         11.6270    -2.5960     1.3370 hc         1 7FA       0.031367
     56 H35         10.4800    -2.6940     2.6690 hc         1 7FA       0.031367
     57 H36         11.1290    -4.1670     1.9550 hc         1 7FA       0.031367
@<TRIPOS>BOND
     1     1     2 1   
     2     1     3 1   
     3     1    24 1   
     4     1    25 1   
     5     2     4 1   
     6     2    22 2   
     7     2    23 1   
     8     3     5 1   
     9     3    26 1   
    10     3    27 1   
    11     4    12 1   
    12     5     6 1   
    13     5    28 1   
    14     5    29 1   
    15     6     7 1   
    16     6    30 1   
    17     6    31 1   
    18     7     8 1   
    19     7    32 1   
    20     7    33 1   
    21     8     9 2   
    22     8    34 1   
    23     9    10 1   
    24     9    35 1   
    25    10    11 1   
    26    10    36 1   
    27    10    37 1   
    28    11    13 2   
    29    11    38 1   
    30    12    39 1   
    31    12    40 1   
    32    12    41 1   
    33    13    14 1   
    34    13    42 1   
    35    14    15 1   
    36    14    43 1   
    37    14    44 1   
    38    15    16 2   
    39    15    45 1   
    40    16    17 1   
    41    16    46 1   
    42    17    18 1   
    43    17    47 1   
    44    17    48 1   
    45    18    19 1   
    46    18    49 1   
    47    18    50 1   
    48    19    20 1   
    49    19    51 1   
    50    19    52 1   
    51    20    21 1   
    52    20    53 1   
    53    20    54 1   
    54    21    55 1   
    55    21    56 1   
    56    21    57 1   
@<TRIPOS>SUBSTRUCTURE
     1 7FA         1 TEMP              0 ****  ****    0 ROOT
