@<TRIPOS>MOLECULE
7FA
   57    56     1     0     0
SMALL
No Charge or Current Charge


@<TRIPOS>ATOM
      1 C1          -5.2380     0.3080    -0.3360 c3         1 7FA      -0.457400
      2 P1          -6.2220    -1.2210    -0.0520 p5         1 7FA       1.528800
      3 C2          -4.0140     0.5150     0.5930 c3         1 7FA      -0.050400
      4 O2          -7.2800    -1.1850    -1.2760 os         1 7FA      -0.617400
      5 C3          -3.2520     1.8210     0.2850 c3         1 7FA      -0.071400
      6 C4          -2.0290     2.0400     1.2030 c3         1 7FA      -0.074400
      7 C5          -1.2660     3.3450     0.8950 c3         1 7FA      -0.042200
      8 C6          -0.0670     3.5360     1.8070 c2         1 7FA      -0.219200
      9 C7           1.1840     3.0830     1.6090 c2         1 7FA      -0.211200
     10 C8           1.6920     2.2470     0.4490 c3         1 7FA      -0.012000
     11 C9           2.8220     2.9580    -0.2720 c2         1 7FA      -0.215200
     12 CM          -8.1020    -2.3350    -1.5240 c3         1 7FA       0.202900
     13 C10          3.9010     2.3920    -0.8430 c2         1 7FA      -0.213200
     14 C11          4.2240     0.9120    -0.9150 c3         1 7FA      -0.012000
     15 C12          4.9320     0.5790    -2.2160 c2         1 7FA      -0.213200
     16 C13          6.1450     0.0150    -2.3660 c2         1 7FA      -0.216200
     17 C14          7.1100    -0.3910    -1.2680 c3         1 7FA      -0.044200
     18 C15          6.8510    -1.8270    -0.7680 c3         1 7FA      -0.073400
     19 C16          7.8180    -2.2630     0.3550 c3         1 7FA      -0.076400
     20 C17          7.5550    -3.7000     0.8560 c3         1 7FA      -0.075400
     21 C18          8.5190    -4.1340     1.9770 c3         1 7FA      -0.088100
     22 O1          -6.8040    -1.3680     1.3190 o          1 7FA      -0.709000
     23 F1          -5.2080    -2.4080    -0.4680 f          1 7FA      -0.335400
     24 H1          -4.9240     0.2630    -1.3840 hc         1 7FA       0.087200
     25 H2          -5.9480     1.1340    -0.2290 hc         1 7FA       0.087200
     26 H3          -4.3460     0.5310     1.6400 hc         1 7FA       0.051700
     27 H4          -3.3260    -0.3350     0.4900 hc         1 7FA       0.051700
     28 H5          -2.9190     1.8050    -0.7610 hc         1 7FA       0.040200
     29 H6          -3.9380     2.6710     0.3890 hc         1 7FA       0.040200
     30 H7          -2.3600     2.0570     2.2490 hc         1 7FA       0.042700
     31 H8          -1.3430     1.1910     1.0980 hc         1 7FA       0.042700
     32 H9          -0.9550     3.3410    -0.1570 hc         1 7FA       0.044200
     33 H10         -1.9480     4.1970     1.0010 hc         1 7FA       0.044200
     34 H11         -0.2900     4.1200     2.7020 ha         1 7FA       0.167000
     35 H12          1.9540     3.3020     2.3530 ha         1 7FA       0.169000
     36 H13          2.0270     1.2760     0.8330 hc         1 7FA       0.050700
     37 H14          0.8900     2.0250    -0.2630 hc         1 7FA       0.050700
     38 H15          2.7080     4.0440    -0.3020 ha         1 7FA       0.169000
     39 H16         -8.6940    -2.5990    -0.6370 h1         1 7FA       0.047700
     40 H17         -8.8020    -2.1320    -2.3450 h1         1 7FA       0.047700
     41 H18         -7.4940    -3.2040    -1.8080 h1         1 7FA       0.047700
     42 H19          4.6470     3.0280    -1.3220 ha         1 7FA       0.169000
     43 H20          4.8300     0.6300    -0.0480 hc         1 7FA       0.051200
     44 H21          3.3080     0.3120    -0.8470 hc         1 7FA       0.051200
     45 H22          4.3440     0.8250    -3.1030 ha         1 7FA       0.168000
     46 H24          6.5230    -0.1780    -3.3730 ha         1 7FA       0.166000
     47 H26          8.1400    -0.3160    -1.6370 hc         1 7FA       0.043700
     48 H27          7.0450     0.3020    -0.4210 hc         1 7FA       0.043700
     49 H28          5.8190    -1.8990    -0.4030 hc         1 7FA       0.039700
     50 H29          6.9410    -2.5220    -1.6120 hc         1 7FA       0.039700
     51 H30          8.8500    -2.1910    -0.0100 hc         1 7FA       0.036700
     52 H31          7.7270    -1.5660     1.1980 hc         1 7FA       0.036700
     53 H32          6.5240    -3.7740     1.2230 hc         1 7FA       0.036700
     54 H33          7.6470    -4.4000     0.0160 hc         1 7FA       0.036700
     55 H34          9.5580    -4.1040     1.6290 hc         1 7FA       0.031367
     56 H35          8.4250    -3.4730     2.8470 hc         1 7FA       0.031367
     57 H36          8.2940    -5.1580     2.2990 hc         1 7FA       0.031367
@<TRIPOS>BOND
     1     1     2 1   
     2     1     3 1   
     3     1    24 1   
     4     1    25 1   
     5     2     4 1   
     6     2    22 2   
     7     2    23 1   
     8     3     5 1   
     9     3    26 1   
    10     3    27 1   
    11     4    12 1   
    12     5     6 1   
    13     5    28 1   
    14     5    29 1   
    15     6     7 1   
    16     6    30 1   
    17     6    31 1   
    18     7     8 1   
    19     7    32 1   
    20     7    33 1   
    21     8     9 2   
    22     8    34 1   
    23     9    10 1   
    24     9    35 1   
    25    10    11 1   
    26    10    36 1   
    27    10    37 1   
    28    11    13 2   
    29    11    38 1   
    30    12    39 1   
    31    12    40 1   
    32    12    41 1   
    33    13    14 1   
    34    13    42 1   
    35    14    15 1   
    36    14    43 1   
    37    14    44 1   
    38    15    16 2   
    39    15    45 1   
    40    16    17 1   
    41    16    46 1   
    42    17    18 1   
    43    17    47 1   
    44    17    48 1   
    45    18    19 1   
    46    18    49 1   
    47    18    50 1   
    48    19    20 1   
    49    19    51 1   
    50    19    52 1   
    51    20    21 1   
    52    20    53 1   
    53    20    54 1   
    54    21    55 1   
    55    21    56 1   
    56    21    57 1   
@<TRIPOS>SUBSTRUCTURE
     1 7FA         1 TEMP              0 ****  ****    0 ROOT
