@<TRIPOS>MOLECULE
7FB
   22    21     1     0     0
SMALL
No Charge or Current Charge


@<TRIPOS>ATOM
      1 O2           3.5210     0.0550     0.0320 oh         1 7FB      -0.644000
      2 C6           2.3110     0.7440    -0.3240 c3         1 7FB       0.130600
      3 C5           1.0710    -0.0820     0.1160 c3         1 7FB       0.165300
      4 C4          -0.2620     0.5740    -0.3220 c3         1 7FB      -0.110400
      5 C3          -1.5260    -0.1480     0.2070 c3         1 7FB      -0.072400
      6 C2          -2.8380     0.5540    -0.2070 c3         1 7FB      -0.075400
      7 C1          -4.0970    -0.1620     0.3180 c3         1 7FB      -0.088100
      8 O1           1.1760    -1.3960    -0.4490 oh         1 7FB      -0.639000
      9 H1           4.2710     0.6390    -0.2190 ho         1 7FB       0.440000
     10 H2           2.2780     1.7270     0.1640 h1         1 7FB       0.017200
     11 H3           2.2740     0.9100    -1.4100 h1         1 7FB       0.017200
     12 H4           1.0840    -0.1390     1.2140 h1         1 7FB       0.083700
     13 H5          -0.2760     1.6110     0.0360 hc         1 7FB       0.039700
     14 H6          -1.5410    -1.1800    -0.1650 hc         1 7FB       0.047200
     15 H7          -2.8330     1.5850     0.1660 hc         1 7FB       0.034700
     16 H8          -2.8910     0.6090    -1.3020 hc         1 7FB       0.034700
     17 H9          -4.1500    -1.1880    -0.0670 hc         1 7FB       0.032367
     18 H10         -4.0920    -0.2030     1.4140 hc         1 7FB       0.032367
     19 H11         -5.0010     0.3710    -0.0010 hc         1 7FB       0.032367
     20 H12          2.1400    -1.5910    -0.4400 ho         1 7FB       0.434000
     21 H13         -0.3020     0.6190    -1.4180 hc         1 7FB       0.039700
     22 H14         -1.4770    -0.2030     1.3020 hc         1 7FB       0.047200
@<TRIPOS>BOND
     1     1     2 1   
     2     1     9 1   
     3     2     3 1   
     4     2    10 1   
     5     2    11 1   
     6     3     4 1   
     7     3     8 1   
     8     3    12 1   
     9     4     5 1   
    10     4    13 1   
    11     4    21 1   
    12     5     6 1   
    13     5    14 1   
    14     5    22 1   
    15     6     7 1   
    16     6    15 1   
    17     6    16 1   
    18     7    17 1   
    19     7    18 1   
    20     7    19 1   
    21     8    20 1   
@<TRIPOS>SUBSTRUCTURE
     1 7FB         1 TEMP              0 ****  ****    0 ROOT
