@<TRIPOS>MOLECULE
7FB
   22    21     1     0     0
SMALL
abcg2


@<TRIPOS>ATOM
      1 O2           3.4670     0.1700     0.3090 oh         1 7FB      -0.644000
      2 C6           2.2960     0.7300    -0.2360 c3         1 7FB       0.130600
      3 C5           1.0950    -0.0970     0.1910 c3         1 7FB       0.165300
      4 C4          -0.2010     0.5450    -0.2940 c3         1 7FB      -0.110400
      5 C3          -1.4580    -0.1420     0.2250 c3         1 7FB      -0.072400
      6 C2          -2.7380     0.5170    -0.2730 c3         1 7FB      -0.075400
      7 C1          -3.9950    -0.1510     0.2660 c3         1 7FB      -0.088100
      8 O1           1.2110    -1.4440    -0.2200 oh         1 7FB      -0.639000
      9 H1           4.2080     0.7320     0.0630 ho         1 7FB       0.440000
     10 H2           2.1440     1.7630     0.1040 h1         1 7FB       0.017200
     11 H3           2.3370     0.7640    -1.3360 h1         1 7FB       0.017200
     12 H4           1.0770    -0.1290     1.2870 h1         1 7FB       0.083700
     13 H5          -0.2110     1.5940     0.0170 hc         1 7FB       0.039700
     14 H6          -1.4540    -1.1950    -0.0690 hc         1 7FB       0.047200
     15 H7          -2.7360     1.5740     0.0090 hc         1 7FB       0.034700
     16 H8          -2.7540     0.4970    -1.3670 hc         1 7FB       0.034700
     17 H9          -4.0400    -1.2020    -0.0250 hc         1 7FB       0.032367
     18 H10         -4.0270    -0.1120     1.3570 hc         1 7FB       0.032367
     19 H11         -4.8980     0.3340    -0.1080 hc         1 7FB       0.032367
     20 H12          1.1750    -1.4680    -1.1830 ho         1 7FB       0.434000
     21 H13         -0.2120     0.5580    -1.3910 hc         1 7FB       0.039700
     22 H14         -1.4480    -0.1310     1.3200 hc         1 7FB       0.047200
@<TRIPOS>BOND
     1     1     2 1   
     2     1     9 1   
     3     2     3 1   
     4     2    10 1   
     5     2    11 1   
     6     3     4 1   
     7     3     8 1   
     8     3    12 1   
     9     4     5 1   
    10     4    13 1   
    11     4    21 1   
    12     5     6 1   
    13     5    14 1   
    14     5    22 1   
    15     6     7 1   
    16     6    15 1   
    17     6    16 1   
    18     7    17 1   
    19     7    18 1   
    20     7    19 1   
    21     8    20 1   
@<TRIPOS>SUBSTRUCTURE
     1 7FB         1 TEMP              0 ****  ****    0 ROOT
