@<TRIPOS>MOLECULE
7FC
   30    32     1     0     0
SMALL
No Charge or Current Charge


@<TRIPOS>ATOM
      1 C10         -2.5090     0.6720     0.9740 ca         1 7FC      -0.090500
      2 C15          4.4820     0.0920    -0.2440 ca         1 7FC       0.068000
      3 C17          2.5030     1.4810     0.0040 ca         1 7FC       0.078000
      4 C20         -0.4830    -0.5670     0.2170 cc         1 7FC       0.191900
      5 C21          1.4560    -2.1310     0.3330 c          1 7FC       0.563900
      6 C22          2.3060    -0.9380     0.1450 ca         1 7FC      -0.226600
      7 O01         -6.6700     1.4290     0.6250 o          1 7FC      -0.712000
      8 O02          1.9180    -3.2610     0.4530 o          1 7FC      -0.578100
      9 O03         -6.8720    -0.0160    -0.9520 o          1 7FC      -0.712000
     10 Cl6          1.7860     3.0930     0.0610 cl         1 7FC      -0.152000
     11 C07         -4.1120    -0.6800    -0.8870 ca         1 7FC      -0.103500
     12 C08         -3.8830     0.9550     0.8920 ca         1 7FC      -0.103500
     13 C09         -2.7380    -0.9620    -0.8030 ca         1 7FC      -0.090500
     14 C11          3.8870     1.3610    -0.2090 ca         1 7FC      -0.049000
     15 C12          3.6970    -1.0580    -0.0650 ca         1 7FC      -0.012000
     16 O13          0.3490     0.5210     0.4340 os         1 7FC      -0.174200
     17 C16         -4.7090     0.2820    -0.0390 ca         1 7FC      -0.097600
     18 C18         -1.9230    -0.2960     0.1350 ca         1 7FC      -0.112800
     19 C19          0.0040    -1.8650     0.3150 cd         1 7FC      -0.107100
     20 C23          1.6990     0.3310     0.1700 ca         1 7FC       0.179100
     21 H1          -1.8990     1.2050     1.7000 ha         1 7FC       0.103000
     22 H4          -0.1620    -3.7640     0.4310 ho         1 7FC       0.476000
     23 H5          -4.7150    -1.2130    -1.6200 ha         1 7FC       0.133500
     24 H6          -4.3060     1.7040     1.5580 ha         1 7FC       0.133500
     25 H7          -2.3050    -1.6980    -1.4760 ha         1 7FC       0.103000
     26 H8           4.4960     2.2510    -0.3420 ha         1 7FC       0.141000
     27 H9           4.1730    -2.0370    -0.0900 ha         1 7FC       0.150000
     28 O04         -0.7740    -2.9920     0.3660 oh         1 7FC      -0.508100
     29 C14         -6.1980     0.5890    -0.1280 c          1 7FC       0.710600
     30 Cl5          6.2150    -0.0580    -0.5070 cl         1 7FC      -0.201000
@<TRIPOS>BOND
     1     1    12 ar  
     2     1    18 ar  
     3     1    21 1   
     4     2    14 ar  
     5     2    15 ar  
     6     2    30 1   
     7     3    10 1   
     8     3    14 ar  
     9     3    20 ar  
    10     4    16 1   
    11     4    18 1   
    12     4    19 2   
    13     5     6 1   
    14     5     8 2   
    15     5    19 1   
    16     6    15 ar  
    17     6    20 ar  
    18     7    29 1   
    19     9    29 1   
    20    11    13 ar  
    21    11    17 ar  
    22    11    23 1   
    23    12    17 ar  
    24    12    24 1   
    25    13    18 ar  
    26    13    25 1   
    27    14    26 1   
    28    15    27 1   
    29    16    20 1   
    30    17    29 1   
    31    19    28 1   
    32    22    28 1   
@<TRIPOS>SUBSTRUCTURE
     1 7FC         1 TEMP              0 ****  ****    0 ROOT
