@<TRIPOS>MOLECULE
7FC
   30    32     1     0     0
SMALL
abcg2


@<TRIPOS>ATOM
      1 C10         -2.3300     0.7800     0.6660 ca         1 7FC      -0.090500
      2 C15          4.3910     0.1890     0.0680 ca         1 7FC       0.068000
      3 C17          2.3630     1.4630     0.0600 ca         1 7FC       0.078000
      4 C20         -0.4880    -0.7360     0.0100 cc         1 7FC       0.191900
      5 C21          1.4980    -2.1720     0.0330 c          1 7FC       0.563900
      6 C22          2.2920    -0.9520     0.0370 ca         1 7FC      -0.226600
      7 O01         -6.3900     1.7640     0.6970 o          1 7FC      -0.712000
      8 O02          1.9730    -3.3020     0.0480 o          1 7FC      -0.578100
      9 O03         -6.8820    -0.0220    -0.5450 o          1 7FC      -0.712000
     10 CL6          1.5240     2.9610     0.0730 cl         1 7FC      -0.152000
     11 C07         -4.2000    -0.8180    -0.5990 ca         1 7FC      -0.103500
     12 C08         -3.6700     1.1260     0.6830 ca         1 7FC      -0.103500
     13 C09         -2.8650    -1.1830    -0.6140 ca         1 7FC      -0.090500
     14 C11          3.7370     1.4250     0.0730 ca         1 7FC      -0.049000
     15 C12          3.6900    -0.9910     0.0520 ca         1 7FC      -0.012000
     16 O13          0.3050     0.3600     0.0160 os         1 7FC      -0.174200
     17 C16         -4.6280     0.3350     0.0530 ca         1 7FC      -0.097600
     18 C18         -1.9090    -0.3890     0.0230 ca         1 7FC      -0.112800
     19 C19          0.0580    -1.9780     0.0290 cd         1 7FC      -0.107100
     20 C23          1.6320     0.2700     0.0390 ca         1 7FC       0.179100
     21 H1          -1.6170     1.4210     1.1670 ha         1 7FC       0.103000
     22 H4          -0.1150    -3.8490     0.0800 ho         1 7FC       0.476000
     23 H5          -4.9240    -1.4410    -1.1070 ha         1 7FC       0.133500
     24 H6          -3.9780     2.0290     1.1940 ha         1 7FC       0.133500
     25 H7          -2.5710    -2.0770    -1.1460 ha         1 7FC       0.103000
     26 H8           4.3040     2.3450     0.0890 ha         1 7FC       0.141000
     27 H9           4.2000    -1.9450     0.0520 ha         1 7FC       0.150000
     28 O04         -0.7040    -3.0790     0.0670 oh         1 7FC      -0.508100
     29 C14         -6.1010     0.7280     0.0700 c          1 7FC       0.710600
     30 CL5          6.1180     0.1680     0.0840 cl         1 7FC      -0.201000
@<TRIPOS>BOND
     1     1    12 ar  
     2     1    18 ar  
     3     1    21 1   
     4     2    14 ar  
     5     2    15 ar  
     6     2    30 1   
     7     3    10 1   
     8     3    14 ar  
     9     3    20 ar  
    10     4    16 1   
    11     4    18 1   
    12     4    19 2   
    13     5     6 1   
    14     5     8 2   
    15     5    19 1   
    16     6    15 ar  
    17     6    20 ar  
    18     7    29 1   
    19     9    29 1   
    20    11    13 ar  
    21    11    17 ar  
    22    11    23 1   
    23    12    17 ar  
    24    12    24 1   
    25    13    18 ar  
    26    13    25 1   
    27    14    26 1   
    28    15    27 1   
    29    16    20 1   
    30    17    29 1   
    31    19    28 1   
    32    22    28 1   
@<TRIPOS>SUBSTRUCTURE
     1 7FC         1 TEMP              0 ****  ****    0 ROOT
