@<TRIPOS>MOLECULE
7FD
   53    55     1     0     0
SMALL
No Charge or Current Charge


@<TRIPOS>ATOM
      1 O01          5.3040    -4.1990     0.1060 oh         1 7FD      -0.533100
      2 C02          4.5560    -3.0600     0.1400 ca         1 7FD       0.140100
      3 C03          4.8050    -2.0230    -0.7730 ca         1 7FD      -0.179000
      4 C04          4.0280    -0.8510    -0.7320 ca         1 7FD      -0.059500
      5 C05          3.5320    -2.9300     1.0890 ca         1 7FD      -0.179000
      6 C06          2.7550    -1.7590     1.1320 ca         1 7FD      -0.059500
      7 C07          3.0060    -0.7090     0.2280 ca         1 7FD      -0.085800
      8 C08          2.1640     0.5210     0.2620 ce         1 7FD      -0.025400
      9 C09          0.7210     0.2680    -0.0140 ca         1 7FD      -0.024800
     10 C10          0.3260    -0.3060    -1.2350 ca         1 7FD      -0.107000
     11 C11         -1.0310    -0.5660    -1.4930 ca         1 7FD      -0.086000
     12 C12         -2.0150    -0.2630    -0.5310 ca         1 7FD      -0.080800
     13 C13         -3.4490    -0.5500    -0.8350 ce         1 7FD      -0.073200
     14 C20         -1.6150     0.3010     0.6990 ca         1 7FD      -0.086000
     15 C21         -0.2570     0.5590     0.9550 ca         1 7FD      -0.107000
     16 C22          2.6680     1.7620     0.5180 c2         1 7FD      -0.074400
     17 C23          1.8350     3.0490     0.4740 c6         1 7FD      -0.046200
     18 C24          2.4680     4.0940    -0.4800 c6         1 7FD      -0.070900
     19 C25          3.9480     4.3710    -0.1200 c6         1 7FD      -0.076400
     20 C26          4.7690     3.0600    -0.0890 c6         1 7FD      -0.070900
     21 C27          4.1340     2.0340     0.8790 c6         1 7FD      -0.046200
     22 H1           5.9640    -4.1150    -0.6140 ho         1 7FD       0.464000
     23 H2           5.5930    -2.1160    -1.5160 ha         1 7FD       0.121500
     24 H3           4.2170    -0.0520    -1.4450 ha         1 7FD       0.117500
     25 H4           3.3370    -3.7360     1.7910 ha         1 7FD       0.121500
     26 H5           1.9590    -1.6650     1.8670 ha         1 7FD       0.117500
     27 H7           1.0740    -0.5480    -1.9870 ha         1 7FD       0.119500
     28 H8          -1.3140    -1.0050    -2.4470 ha         1 7FD       0.116500
     29 H9          -3.6070    -1.0030    -1.8170 ha         1 7FD       0.193000
     30 H12         -2.3450     0.5400     1.4660 ha         1 7FD       0.116500
     31 H13          0.0380     0.9860     1.9110 ha         1 7FD       0.119500
     32 H15          0.8060     2.8630     0.1450 hc         1 7FD       0.051450
     33 H16          1.7620     3.4690     1.4860 hc         1 7FD       0.051450
     34 H17          2.4040     3.7280    -1.5140 hc         1 7FD       0.041200
     35 H18          1.8930     5.0290    -0.4440 hc         1 7FD       0.041200
     36 H19          4.3850     5.0680    -0.8490 hc         1 7FD       0.039700
     37 H20          4.0040     4.8670     0.8590 hc         1 7FD       0.039700
     38 H21          4.8220     2.6300    -1.0980 hc         1 7FD       0.041200
     39 H22          5.8020     3.2730     0.2170 hc         1 7FD       0.041200
     40 H23          4.1790     2.4270     1.9030 hc         1 7FD       0.051450
     41 H24          4.7380     1.1190     0.8940 hc         1 7FD       0.051450
     42 C1          -4.5540    -0.3230    -0.0650 cf         1 7FD      -0.279200
     43 C2          -5.9380    -0.6540    -0.4800 c          1 7FD       0.597300
     44 O1          -6.2300    -1.1630    -1.5530 o          1 7FD      -0.498000
     45 O2          -6.8380    -0.3140     0.4930 os         1 7FD      -0.448100
     46 C5          -8.2300    -0.5720     0.2420 c3         1 7FD       0.167600
     47 C6          -9.0160    -0.1040     1.4770 c3         1 7FD      -0.097100
     48 H6          -4.4550     0.1270     0.9200 ha         1 7FD       0.197000
     49 H10         -8.5770    -0.0230    -0.6440 h1         1 7FD       0.047700
     50 H11         -8.4070    -1.6440     0.0800 h1         1 7FD       0.047700
     51 H14        -10.0880    -0.2810     1.3330 hc         1 7FD       0.046033
     52 H25         -8.6940    -0.6510     2.3700 hc         1 7FD       0.046033
     53 H26         -8.8650     0.9680     1.6470 hc         1 7FD       0.046033
@<TRIPOS>BOND
     1     1     2 1   
     2     1    22 1   
     3     2     3 ar  
     4     2     5 ar  
     5     3     4 ar  
     6     3    23 1   
     7     4     7 ar  
     8     4    24 1   
     9     5     6 ar  
    10     5    25 1   
    11     6     7 ar  
    12     6    26 1   
    13     7     8 1   
    14     8     9 1   
    15     8    16 2   
    16     9    10 ar  
    17     9    15 ar  
    18    10    11 ar  
    19    10    27 1   
    20    11    12 ar  
    21    11    28 1   
    22    12    13 1   
    23    12    14 ar  
    24    13    29 1   
    25    13    42 2   
    26    14    15 ar  
    27    14    30 1   
    28    15    31 1   
    29    16    17 1   
    30    16    21 1   
    31    17    18 1   
    32    17    32 1   
    33    17    33 1   
    34    18    19 1   
    35    18    34 1   
    36    18    35 1   
    37    19    20 1   
    38    19    36 1   
    39    19    37 1   
    40    20    21 1   
    41    20    38 1   
    42    20    39 1   
    43    21    40 1   
    44    21    41 1   
    45    42    43 1   
    46    42    48 1   
    47    43    44 2   
    48    43    45 1   
    49    45    46 1   
    50    46    47 1   
    51    46    49 1   
    52    46    50 1   
    53    47    51 1   
    54    47    52 1   
    55    47    53 1   
@<TRIPOS>SUBSTRUCTURE
     1 7FD         1 TEMP              0 ****  ****    0 ROOT
