@<TRIPOS>MOLECULE
7FD
   53    55     1     0     0
SMALL
abcg2


@<TRIPOS>ATOM
      1 O01          5.3150    -4.1170    -0.1060 oh         1 7FD      -0.533100
      2 C02          4.5860    -2.9850    -0.0390 ca         1 7FD       0.140100
      3 C03          4.8720    -1.8590    -0.8050 ca         1 7FD      -0.179000
      4 C04          4.0820    -0.7250    -0.6930 ca         1 7FD      -0.059500
      5 C05          3.4980    -2.9590     0.8330 ca         1 7FD      -0.179000
      6 C06          2.7190    -1.8200     0.9290 ca         1 7FD      -0.059500
      7 C07          2.9990    -0.6740     0.1820 ca         1 7FD      -0.085800
      8 C08          2.1340     0.5280     0.2840 ce         1 7FD      -0.025400
      9 C09          0.6950     0.2630     0.0410 ca         1 7FD      -0.024800
     10 C10          0.2810    -0.4070    -1.1100 ca         1 7FD      -0.107000
     11 C11         -1.0580    -0.6770    -1.3310 ca         1 7FD      -0.086000
     12 C12         -2.0330    -0.3020    -0.4020 ca         1 7FD      -0.080800
     13 C13         -3.4260    -0.6150    -0.6890 ce         1 7FD      -0.073200
     14 C20         -1.6160     0.3480     0.7640 ca         1 7FD      -0.086000
     15 C21         -0.2780     0.6210     0.9790 ca         1 7FD      -0.107000
     16 C22          2.6080     1.7540     0.5700 c2         1 7FD      -0.074400
     17 C23          1.7930     3.0150     0.4720 c6         1 7FD      -0.046200
     18 C24          2.4490     3.9810    -0.5240 c6         1 7FD      -0.070900
     19 C25          3.8940     4.2860    -0.1510 c6         1 7FD      -0.076400
     20 C26          4.7080     3.0060    -0.0030 c6         1 7FD      -0.070900
     21 C27          4.0330     2.0330     0.9660 c6         1 7FD      -0.046200
     22 H1           6.0390    -4.0120    -0.7330 ho         1 7FD       0.464000
     23 H2           5.7060    -1.8670    -1.4980 ha         1 7FD       0.121500
     24 H3           4.3120     0.1350    -1.3110 ha         1 7FD       0.117500
     25 H4           3.2680    -3.8320     1.4320 ha         1 7FD       0.121500
     26 H5           1.8750    -1.8200     1.6090 ha         1 7FD       0.117500
     27 H7           1.0150    -0.7140    -1.8460 ha         1 7FD       0.119500
     28 H8          -1.3570    -1.1860    -2.2390 ha         1 7FD       0.116500
     29 H9          -3.5960    -1.1660    -1.6090 ha         1 7FD       0.193000
     30 H12         -2.3350     0.6360     1.5200 ha         1 7FD       0.116500
     31 H13          0.0240     1.1090     1.8970 ha         1 7FD       0.119500
     32 H15          0.7660     2.8220     0.1660 hc         1 7FD       0.051450
     33 H16          1.7480     3.4990     1.4550 hc         1 7FD       0.051450
     34 H17          2.4140     3.5360    -1.5240 hc         1 7FD       0.041200
     35 H18          1.8640     4.9020    -0.5720 hc         1 7FD       0.041200
     36 H19          4.3480     4.9380    -0.9010 hc         1 7FD       0.039700
     37 H20          3.9140     4.8400     0.7930 hc         1 7FD       0.039700
     38 H21          4.8170     2.5250    -0.9800 hc         1 7FD       0.041200
     39 H22          5.7180     3.2340     0.3480 hc         1 7FD       0.041200
     40 H23          4.0090     2.4980     1.9600 hc         1 7FD       0.051450
     41 H24          4.6180     1.1200     1.0630 hc         1 7FD       0.051450
     42 C1          -4.4910    -0.2910     0.0540 cf         1 7FD      -0.279200
     43 C2          -5.8440    -0.6830    -0.3700 c          1 7FD       0.597300
     44 O1          -6.1100    -1.3120    -1.3690 o          1 7FD      -0.498000
     45 O2          -6.7580    -0.2570     0.4940 os         1 7FD      -0.448100
     46 C5          -8.1340    -0.5620     0.2280 c3         1 7FD       0.167600
     47 C6          -8.9620     0.0550     1.3290 c3         1 7FD      -0.097100
     48 H6          -4.4030     0.2660     0.9790 ha         1 7FD       0.197000
     49 H10         -8.4200    -0.1590    -0.7460 h1         1 7FD       0.047700
     50 H11         -8.2710    -1.6450     0.1960 h1         1 7FD       0.047700
     51 H14        -10.0140    -0.1730     1.1570 hc         1 7FD       0.046033
     52 H25         -8.6910    -0.3440     2.3070 hc         1 7FD       0.046033
     53 H26         -8.8550     1.1390     1.3520 hc         1 7FD       0.046033
@<TRIPOS>BOND
     1     1     2 1   
     2     1    22 1   
     3     2     3 ar  
     4     2     5 ar  
     5     3     4 ar  
     6     3    23 1   
     7     4     7 ar  
     8     4    24 1   
     9     5     6 ar  
    10     5    25 1   
    11     6     7 ar  
    12     6    26 1   
    13     7     8 1   
    14     8     9 1   
    15     8    16 2   
    16     9    10 ar  
    17     9    15 ar  
    18    10    11 ar  
    19    10    27 1   
    20    11    12 ar  
    21    11    28 1   
    22    12    13 1   
    23    12    14 ar  
    24    13    29 1   
    25    13    42 2   
    26    14    15 ar  
    27    14    30 1   
    28    15    31 1   
    29    16    17 1   
    30    16    21 1   
    31    17    18 1   
    32    17    32 1   
    33    17    33 1   
    34    18    19 1   
    35    18    34 1   
    36    18    35 1   
    37    19    20 1   
    38    19    36 1   
    39    19    37 1   
    40    20    21 1   
    41    20    38 1   
    42    20    39 1   
    43    21    40 1   
    44    21    41 1   
    45    42    43 1   
    46    42    48 1   
    47    43    44 2   
    48    43    45 1   
    49    45    46 1   
    50    46    47 1   
    51    46    49 1   
    52    46    50 1   
    53    47    51 1   
    54    47    52 1   
    55    47    53 1   
@<TRIPOS>SUBSTRUCTURE
     1 7FD         1 TEMP              0 ****  ****    0 ROOT
