@<TRIPOS>MOLECULE
7FE
   67    71     1     0     0
SMALL
bcc


@<TRIPOS>ATOM
      1 CL           6.0340    -3.3210     2.1090 cl         1 7FE      -0.126000
      2 C1          -6.9690    -2.1410     0.2500 ca         1 7FE       0.208100
      3 O1          -8.3020    -2.1680     0.3730 oh         1 7FE      -0.484100
      4 C2          -6.3440    -3.2890    -0.2140 ca         1 7FE      -0.235000
      5 N2           4.1250    -2.0220     0.9390 nb         1 7FE      -0.689000
      6 C3          -4.9610    -3.3280    -0.3540 ca         1 7FE       0.248100
      7 N3           6.2930    -1.1230     0.7600 nb         1 7FE      -0.682000
      8 O3          -2.1480    -3.3320    -0.1420 o          1 7FE      -0.614100
      9 C4          -4.1880    -2.1750    -0.0920 ca         1 7FE      -0.308600
     10 N4           0.7130     5.2960     0.2530 n3         1 7FE      -0.719600
     11 C5          -4.8450    -1.0520     0.4170 ca         1 7FE      -0.012000
     12 C6          -6.2100    -1.0170     0.5950 ca         1 7FE      -0.283000
     13 C7          -2.7260    -2.2500    -0.2660 c          1 7FE       0.707700
     14 C8          -2.5330    -0.0050    -1.3410 c3         1 7FE       0.152300
     15 C9          -2.0930     1.3270    -0.7970 ca         1 7FE      -0.104300
     16 C10         -0.6010    -1.1650    -0.4030 ca         1 7FE       0.074600
     17 C11         -2.0170     1.5710     0.5680 ca         1 7FE      -0.119000
     18 C12         -1.5820     2.8020     1.0420 ca         1 7FE      -0.113500
     19 C13         -1.2100     3.8150     0.1670 ca         1 7FE      -0.077300
     20 C14         -1.3000     3.5720    -1.2010 ca         1 7FE      -0.113500
     21 C15         -1.7350     2.3450    -1.6750 ca         1 7FE      -0.119000
     22 C16         -0.6610     5.1240     0.6650 c3         1 7FE       0.216100
     23 C17          0.2420    -0.8680    -1.4640 ca         1 7FE      -0.138500
     24 C18          1.6130    -0.8110    -1.2710 ca         1 7FE      -0.079000
     25 C19          2.1670    -1.0750    -0.0230 cp         1 7FE      -0.169500
     26 C20          1.3160    -1.4140     1.0290 ca         1 7FE      -0.079000
     27 C21         -0.0530    -1.4380     0.8480 ca         1 7FE      -0.138500
     28 C22          3.6230    -1.0250     0.2060 cp         1 7FE       0.522800
     29 C23          5.4130    -2.0090     1.1640 ca         1 7FE       0.740000
     30 C24          5.7900    -0.1170     0.0560 ca         1 7FE       0.438200
     31 C25          4.4440     0.0070    -0.2660 ca         1 7FE      -0.298900
     32 C26          3.9640     1.2060    -1.0220 c3         1 7FE      -0.039800
     33 C27          1.6370     4.3450     0.8450 c5         1 7FE       0.157300
     34 C28          3.0110     4.9060     0.4770 c5         1 7FE      -0.078900
     35 C29          2.7680     6.4220     0.3070 c5         1 7FE      -0.078900
     36 C30          1.2710     6.5970     0.5720 c5         1 7FE       0.157300
     37 H1          -8.6320    -1.3270     0.7100 ho         1 7FE       0.432000
     38 H2          -6.9280    -4.1720    -0.4460 ha         1 7FE       0.168000
     39 H3          -3.4500    -4.4160    -0.6160 ho         1 7FE       0.476000
     40 H5          -4.2760    -0.1790     0.7100 ha         1 7FE       0.137000
     41 H6          -6.6830    -0.1310     0.9990 ha         1 7FE       0.139000
     42 H7          -2.2000    -0.1070    -2.3780 h1         1 7FE       0.060200
     43 H8          -3.6180    -0.0730    -1.3850 h1         1 7FE       0.060200
     44 H9          -2.2650     0.7920     1.2800 ha         1 7FE       0.132500
     45 H10         -1.5120     2.9660     2.1110 ha         1 7FE       0.137000
     46 H11         -1.0080     4.3440    -1.9030 ha         1 7FE       0.137000
     47 H12         -1.7780     2.1700    -2.7440 ha         1 7FE       0.132500
     48 H13         -0.7720     5.1810     1.7620 h1         1 7FE       0.038700
     49 H14         -1.2460     5.9510     0.2500 h1         1 7FE       0.038700
     50 H15         -0.1530    -0.6720    -2.4520 ha         1 7FE       0.140500
     51 H16          2.2470    -0.5870    -2.1180 ha         1 7FE       0.142500
     52 H17          1.7250    -1.6290     2.0070 ha         1 7FE       0.142500
     53 H18         -0.6990    -1.6460     1.6900 ha         1 7FE       0.140500
     54 H19          6.4940     0.6430    -0.2630 h4         1 7FE       0.028100
     55 H20          3.8720     1.0030    -2.0900 hc         1 7FE       0.051033
     56 H21          2.9910     1.5440    -0.6680 hc         1 7FE       0.051033
     57 H22          4.6690     2.0290    -0.9110 hc         1 7FE       0.051033
     58 H23          1.5220     4.3020     1.9420 h1         1 7FE       0.036700
     59 H24          1.4630     3.3360     0.4660 h1         1 7FE       0.036700
     60 H25          3.7520     4.6830     1.2440 hc         1 7FE       0.046200
     61 H26          3.3680     4.4650    -0.4550 hc         1 7FE       0.046200
     62 H27          3.3650     7.0210     0.9940 hc         1 7FE       0.046200
     63 H28          3.0230     6.7430    -0.7030 hc         1 7FE       0.046200
     64 H29          0.8120     7.3790    -0.0360 h1         1 7FE       0.036700
     65 H30          1.1020     6.8640     1.6290 h1         1 7FE       0.036700
     66 N1          -2.0130    -1.1200    -0.5540 n          1 7FE      -0.391000
     67 O2          -4.4170    -4.4800    -0.7520 oh         1 7FE      -0.498100
@<TRIPOS>BOND
     1     1    29 1   
     2     2     3 1   
     3     2     4 ar  
     4     2    12 ar  
     5     3    37 1   
     6     4     6 ar  
     7     4    38 1   
     8     5    28 ar  
     9     5    29 ar  
    10     6     9 ar  
    11     6    67 1   
    12     7    29 ar  
    13     7    30 ar  
    14     8    13 2   
    15     9    11 ar  
    16     9    13 1   
    17    10    22 1   
    18    10    33 1   
    19    10    36 1   
    20    11    12 ar  
    21    11    40 1   
    22    12    41 1   
    23    13    66 1   
    24    14    15 1   
    25    14    42 1   
    26    14    43 1   
    27    14    66 1   
    28    15    17 ar  
    29    15    21 ar  
    30    16    23 ar  
    31    16    27 ar  
    32    16    66 1   
    33    17    18 ar  
    34    17    44 1   
    35    18    19 ar  
    36    18    45 1   
    37    19    20 ar  
    38    19    22 1   
    39    20    21 ar  
    40    20    46 1   
    41    21    47 1   
    42    22    48 1   
    43    22    49 1   
    44    23    24 ar  
    45    23    50 1   
    46    24    25 ar  
    47    24    51 1   
    48    25    26 ar  
    49    25    28 1   
    50    26    27 ar  
    51    26    52 1   
    52    27    53 1   
    53    28    31 ar  
    54    30    31 ar  
    55    30    54 1   
    56    31    32 1   
    57    32    55 1   
    58    32    56 1   
    59    32    57 1   
    60    33    34 1   
    61    33    58 1   
    62    33    59 1   
    63    34    35 1   
    64    34    60 1   
    65    34    61 1   
    66    35    36 1   
    67    35    62 1   
    68    35    63 1   
    69    36    64 1   
    70    36    65 1   
    71    39    67 1   
@<TRIPOS>SUBSTRUCTURE
     1 7FE         1 TEMP              0 ****  ****    0 ROOT
