@<TRIPOS>MOLECULE
7FE
   67    71     1     0     0
SMALL
No Charge or Current Charge


@<TRIPOS>ATOM
      1 Cl           6.1500    -4.0640     1.2460 cl         1 7FE      -0.126000
      2 C1          -6.9360    -2.3730     0.6020 ca         1 7FE       0.208100
      3 O1          -8.2460    -2.4010     0.9640 oh         1 7FE      -0.523100
      4 C2          -6.4040    -3.4130    -0.1630 ca         1 7FE      -0.217000
      5 N2           4.1780    -2.4010     0.6370 nb         1 7FE      -0.163000
      6 C3          -5.0550    -3.3930    -0.5350 ca         1 7FE       0.248100
      7 N3           6.3880    -1.4620     0.7980 nb         1 7FE      -0.156000
      8 O3          -2.1960    -3.3740    -0.7910 o          1 7FE      -0.614100
      9 C4          -4.2200    -2.3160    -0.1680 ca         1 7FE      -0.308600
     10 N4           0.7590     5.4710    -0.0020 n3         1 7FE      -0.719600
     11 C5          -4.7630    -1.2870     0.6360 ca         1 7FE       0.006000
     12 C6          -6.1160    -1.3150     1.0090 ca         1 7FE      -0.265000
     13 C7          -2.7640    -2.3070    -0.5790 c          1 7FE       0.640700
     14 C8          -2.6790     0.0510    -1.3570 c3         1 7FE       0.152300
     15 C9          -2.2130     1.4410    -0.9180 ca         1 7FE      -0.104300
     16 C10         -0.6370    -1.0180    -0.3480 ca         1 7FE      -0.018000
     17 C11         -2.0830     1.7670     0.4480 ca         1 7FE      -0.101000
     18 C12         -1.6030     3.0290     0.8360 ca         1 7FE      -0.095500
     19 C13         -1.2500     3.9860    -0.1350 ca         1 7FE      -0.077300
     20 C14         -1.3960     3.6680    -1.4990 ca         1 7FE      -0.095500
     21 C15         -1.8750     2.4060    -1.8880 ca         1 7FE      -0.101000
     22 C16         -0.6870     5.3410     0.2820 c3         1 7FE       0.216100
     23 C17          0.2630    -0.4740    -1.2900 ca         1 7FE      -0.120500
     24 C18          1.6490    -0.5160    -1.0670 ca         1 7FE      -0.061000
     25 C19          2.1870    -1.1520     0.0770 cp         1 7FE      -0.169500
     26 C20          1.2830    -1.7930     0.9580 ca         1 7FE      -0.061000
     27 C21         -0.1030    -1.7440     0.7360 ca         1 7FE      -0.120500
     28 C22          3.6630    -1.1950     0.3220 cp         1 7FE       0.194500
     29 C23          5.5050    -2.4780     0.8520 ca         1 7FE       0.214000
     30 C24          5.8830    -0.2480     0.5050 ca         1 7FE       0.109900
     31 C25          4.5090    -0.0490     0.2600 ca         1 7FE      -0.168300
     32 C26          4.0000     1.3630    -0.0130 c3         1 7FE      -0.039800
     33 C27          1.6330     4.4860     0.6690 c5         1 7FE       0.157300
     34 C28          3.0400     4.9760     0.2380 c5         1 7FE      -0.078900
     35 C29          2.8590     6.5160     0.0460 c5         1 7FE      -0.078900
     36 C30          1.3630     6.7610     0.3810 c5         1 7FE       0.157300
     37 H1          -8.4300    -1.5990     1.4960 ho         1 7FE       0.471000
     38 H2          -7.0360    -4.2420    -0.4640 ha         1 7FE       0.150000
     39 H3          -3.5790    -4.3240    -1.2460 ho         1 7FE       0.515000
     40 H5          -4.1420    -0.4660     0.9880 ha         1 7FE       0.119000
     41 H6          -6.5170    -0.5110     1.6220 ha         1 7FE       0.121000
     42 H7          -2.4490    -0.0830    -2.4210 h1         1 7FE       0.060200
     43 H8          -3.7710     0.0150    -1.2800 h1         1 7FE       0.060200
     44 H9          -2.3280     1.0350     1.2130 ha         1 7FE       0.114500
     45 H10         -1.4900     3.2580     1.8930 ha         1 7FE       0.119000
     46 H11         -1.1200     4.3980    -2.2570 ha         1 7FE       0.119000
     47 H12         -1.9670     2.1740    -2.9470 ha         1 7FE       0.114500
     48 H13         -0.8750     5.4940     1.3540 h1         1 7FE       0.038700
     49 H14         -1.2410     6.1250    -0.2530 h1         1 7FE       0.038700
     50 H15         -0.1020    -0.0020    -2.1980 ha         1 7FE       0.122500
     51 H16          2.3140    -0.0700    -1.8030 ha         1 7FE       0.124500
     52 H17          1.6600    -2.3270     1.8280 ha         1 7FE       0.124500
     53 H18         -0.7680    -2.2510     1.4310 ha         1 7FE       0.122500
     54 H19          6.5910     0.5780     0.4760 h4         1 7FE       0.028100
     55 H20          3.9390     1.5620    -1.0890 hc         1 7FE       0.051033
     56 H21          3.0050     1.5220     0.4200 hc         1 7FE       0.051033
     57 H22          4.6640     2.1180     0.4240 hc         1 7FE       0.051033
     58 H23          1.5150     4.5270     1.7610 h1         1 7FE       0.036700
     59 H24          1.4390     3.4550     0.3420 h1         1 7FE       0.036700
     60 H25          3.8010     4.7320     0.9880 hc         1 7FE       0.046200
     61 H26          3.3480     4.5010    -0.7010 hc         1 7FE       0.046200
     62 H27          3.5200     7.1000     0.6970 hc         1 7FE       0.046200
     63 H28          3.0820     6.8080    -0.9860 hc         1 7FE       0.046200
     64 H29          0.9470     7.6070    -0.1830 h1         1 7FE       0.036700
     65 H30          1.2260     6.9630     1.4530 h1         1 7FE       0.036700
     66 N1          -2.0560    -1.0820    -0.6190 n          1 7FE      -0.231400
     67 O2          -4.5640    -4.4350    -1.2560 oh         1 7FE      -0.537100
@<TRIPOS>BOND
     1     1    29 1   
     2     2     3 1   
     3     2     4 ar  
     4     2    12 ar  
     5     3    37 1   
     6     4     6 ar  
     7     4    38 1   
     8     5    28 ar  
     9     5    29 ar  
    10     6     9 ar  
    11     6    67 1   
    12     7    29 ar  
    13     7    30 ar  
    14     8    13 2   
    15     9    11 ar  
    16     9    13 1   
    17    10    22 1   
    18    10    33 1   
    19    10    36 1   
    20    11    12 ar  
    21    11    40 1   
    22    12    41 1   
    23    13    66 1   
    24    14    15 1   
    25    14    42 1   
    26    14    43 1   
    27    14    66 1   
    28    15    17 ar  
    29    15    21 ar  
    30    16    23 ar  
    31    16    27 ar  
    32    16    66 1   
    33    17    18 ar  
    34    17    44 1   
    35    18    19 ar  
    36    18    45 1   
    37    19    20 ar  
    38    19    22 1   
    39    20    21 ar  
    40    20    46 1   
    41    21    47 1   
    42    22    48 1   
    43    22    49 1   
    44    23    24 ar  
    45    23    50 1   
    46    24    25 ar  
    47    24    51 1   
    48    25    26 ar  
    49    25    28 1   
    50    26    27 ar  
    51    26    52 1   
    52    27    53 1   
    53    28    31 ar  
    54    30    31 ar  
    55    30    54 1   
    56    31    32 1   
    57    32    55 1   
    58    32    56 1   
    59    32    57 1   
    60    33    34 1   
    61    33    58 1   
    62    33    59 1   
    63    34    35 1   
    64    34    60 1   
    65    34    61 1   
    66    35    36 1   
    67    35    62 1   
    68    35    63 1   
    69    36    64 1   
    70    36    65 1   
    71    39    67 1   
@<TRIPOS>SUBSTRUCTURE
     1 7FE         1 TEMP              0 ****  ****    0 ROOT
