@<TRIPOS>MOLECULE
7FF
   29    30     1     0     0
SMALL
No Charge or Current Charge


@<TRIPOS>ATOM
      1 N1          -1.0120     0.2350     0.3460 n          1 7FF      -0.204400
      2 C4           1.3450     0.9130    -0.0150 ca         1 7FF      -0.061300
      3 C5           0.8660    -1.4150     0.5110 ca         1 7FF      -0.054000
      4 C7           2.7090     0.5860    -0.1450 ca         1 7FF      -0.170000
      5 C8           3.1510    -0.7270     0.0500 ca         1 7FF       0.279000
      6 C10         -1.3290     1.6510     0.6770 c6         1 7FF       0.105000
      7 N12          4.4790    -1.0330    -0.0820 nv         1 7FF      -1.064000
      8 C13          0.9250     2.3760    -0.2170 c6         1 7FF      -0.031100
      9 C15         -4.4140    -0.9490    -0.3690 c3         1 7FF       0.169900
     10 C2           0.4050    -0.0860     0.3590 ca         1 7FF      -0.078000
     11 C3          -2.0340    -0.6660    -0.0830 c          1 7FF       0.637100
     12 O6          -1.8220    -1.7740    -0.5590 o          1 7FF      -0.529000
     13 O9          -3.2960    -0.1450     0.0510 os         1 7FF      -0.454100
     14 C11          2.2290    -1.7270     0.3750 ca         1 7FF      -0.164000
     15 C14         -0.6030     2.5770    -0.3150 c6         1 7FF      -0.103400
     16 H1           0.1800    -2.2160     0.7740 ha         1 7FF       0.130000
     17 H2           3.4250     1.3620    -0.4020 ha         1 7FF       0.110000
     18 H3          -2.4040     1.8700     0.6490 h1         1 7FF       0.064700
     19 H4          -0.9860     1.8620     1.7000 h1         1 7FF       0.064700
     20 H5           5.1260    -0.3370    -0.4490 hn         1 7FF       0.443000
     21 H6           4.7830    -2.0040    -0.0750 hn         1 7FF       0.443000
     22 H7           1.3080     2.9650     0.6280 hc         1 7FF       0.051700
     23 H8           1.4060     2.7870    -1.1160 hc         1 7FF       0.051700
     24 H9          -4.3440    -1.1890    -1.4380 h1         1 7FF       0.048033
     25 H10         -4.4560    -1.8880     0.1980 h1         1 7FF       0.048033
     26 H11         -5.3550    -0.4100    -0.2030 h1         1 7FF       0.048033
     27 H12          2.5620    -2.7500     0.5220 ha         1 7FF       0.116000
     28 H13         -0.9430     2.3520    -1.3350 hc         1 7FF       0.051700
     29 H14         -0.8600     3.6260    -0.1190 hc         1 7FF       0.051700
@<TRIPOS>BOND
     1     1     6 1   
     2     1    10 1   
     3     1    11 1   
     4     2     4 ar  
     5     2     8 1   
     6     2    10 ar  
     7     3    10 ar  
     8     3    14 ar  
     9     3    16 1   
    10     4     5 ar  
    11     4    17 1   
    12     5     7 1   
    13     5    14 ar  
    14     6    15 1   
    15     6    18 1   
    16     6    19 1   
    17     7    20 1   
    18     7    21 1   
    19     8    15 1   
    20     8    22 1   
    21     8    23 1   
    22     9    13 1   
    23     9    24 1   
    24     9    25 1   
    25     9    26 1   
    26    11    12 2   
    27    11    13 1   
    28    14    27 1   
    29    15    28 1   
    30    15    29 1   
@<TRIPOS>SUBSTRUCTURE
     1 7FF         1 TEMP              0 ****  ****    0 ROOT
