@<TRIPOS>MOLECULE
7FF
   29    30     1     0     0
SMALL
abcg2


@<TRIPOS>ATOM
      1 N1          -1.0070     0.2030     0.4870 n          1 7FF      -0.204400
      2 C4           1.2620     0.8730    -0.0740 ca         1 7FF      -0.061300
      3 C5           0.8570    -1.3840     0.6530 ca         1 7FF      -0.054000
      4 C7           2.6130     0.5600    -0.1970 ca         1 7FF      -0.170000
      5 C8           3.1070    -0.7140     0.0780 ca         1 7FF       0.279000
      6 C10         -1.2660     1.5960     0.8380 c6         1 7FF       0.105000
      7 N12          4.4570    -0.9950    -0.0110 nv         1 7FF      -1.064000
      8 C13          0.8200     2.2920    -0.3370 c6         1 7FF      -0.031100
      9 C15         -4.2410    -0.8600    -0.5220 c3         1 7FF       0.169900
     10 C2           0.3690    -0.1170     0.3370 ca         1 7FF      -0.078000
     11 C3          -1.9460    -0.5940    -0.0960 c          1 7FF       0.637100
     12 O6          -1.7120    -1.6410    -0.6630 o          1 7FF      -0.529000
     13 O9          -3.1760    -0.1040     0.0460 os         1 7FF      -0.454100
     14 C11          2.1980    -1.6850     0.5180 ca         1 7FF      -0.164000
     15 C14         -0.6900     2.4900    -0.2480 c6         1 7FF      -0.103400
     16 H1           0.1860    -2.1500     1.0140 ha         1 7FF       0.130000
     17 H2           3.2990     1.3380    -0.5170 ha         1 7FF       0.110000
     18 H3          -2.3290     1.7630     0.9720 h1         1 7FF       0.064700
     19 H4          -0.7840     1.8010     1.7980 h1         1 7FF       0.064700
     20 H5           4.9770    -0.4040    -0.6410 hn         1 7FF       0.443000
     21 H6           4.6810    -1.9660    -0.1610 hn         1 7FF       0.443000
     22 H7           1.3100     2.9350     0.4000 hc         1 7FF       0.051700
     23 H8           1.1910     2.6190    -1.3110 hc         1 7FF       0.051700
     24 H9          -4.1380    -0.9500    -1.6030 h1         1 7FF       0.048033
     25 H10         -4.3090    -1.8550    -0.0840 h1         1 7FF       0.048033
     26 H11         -5.1480    -0.3070    -0.2960 h1         1 7FF       0.048033
     27 H12          2.5490    -2.6790     0.7680 ha         1 7FF       0.116000
     28 H13         -1.1730     2.2440    -1.1970 hc         1 7FF       0.051700
     29 H14         -0.9180     3.5360    -0.0350 hc         1 7FF       0.051700
@<TRIPOS>BOND
     1     1     6 1   
     2     1    10 1   
     3     1    11 1   
     4     2     4 ar  
     5     2     8 1   
     6     2    10 ar  
     7     3    10 ar  
     8     3    14 ar  
     9     3    16 1   
    10     4     5 ar  
    11     4    17 1   
    12     5     7 1   
    13     5    14 ar  
    14     6    15 1   
    15     6    18 1   
    16     6    19 1   
    17     7    20 1   
    18     7    21 1   
    19     8    15 1   
    20     8    22 1   
    21     8    23 1   
    22     9    13 1   
    23     9    24 1   
    24     9    25 1   
    25     9    26 1   
    26    11    12 2   
    27    11    13 1   
    28    14    27 1   
    29    15    28 1   
    30    15    29 1   
@<TRIPOS>SUBSTRUCTURE
     1 7FF         1 TEMP              0 ****  ****    0 ROOT
