@<TRIPOS>MOLECULE
7FG
   60    63     1     0     0
SMALL
No Charge or Current Charge


@<TRIPOS>ATOM
      1 C01         -4.5800    -2.2340    -0.9890 c6         1 7FG      -0.063150
      2 C02         -3.8340    -3.5120    -1.4640 c6         1 7FG      -0.070400
      3 C03         -2.2870    -3.3550    -1.4480 c6         1 7FG      -0.063150
      4 C04         -1.7240    -2.6290    -0.1890 c6         1 7FG      -0.027000
      5 C05         -1.8080    -3.4480     1.1340 c6         1 7FG      -0.063150
      6 C06         -3.2500    -3.6260     1.6860 c6         1 7FG      -0.070400
      7 C07         -4.1010    -2.3280     1.5930 c6         1 7FG      -0.063150
      8 C08         -3.9430    -1.5440     0.2550 c6         1 7FG      -0.027000
      9 C09         -2.4570    -1.3000    -0.0090 c2         1 7FG      -0.060400
     10 C10         -1.8700    -0.0720    -0.0730 ce         1 7FG      -0.035400
     11 C11         -0.4050     0.1190    -0.2670 ca         1 7FG      -0.023800
     12 C12         -2.6330     1.2020     0.0450 ca         1 7FG      -0.051800
     13 C13         -3.5880     1.5570    -0.9280 ca         1 7FG      -0.088000
     14 C14         -4.2940     2.7680    -0.8190 ca         1 7FG      -0.135000
     15 C15         -4.0430     3.6340     0.2570 ca         1 7FG       0.102100
     16 C16         -3.0820     3.2920     1.2240 ca         1 7FG      -0.135000
     17 C17         -2.3770     2.0800     1.1150 ca         1 7FG      -0.088000
     18 C18          0.0750     0.7710    -1.4160 ca         1 7FG      -0.107000
     19 C19          1.4540     0.9670    -1.5980 ca         1 7FG      -0.086000
     20 C20          2.3760     0.5200    -0.6300 ca         1 7FG      -0.079800
     21 C21          1.8910    -0.1230     0.5280 ca         1 7FG      -0.086000
     22 C22          0.5100    -0.3170     0.7080 ca         1 7FG      -0.107000
     23 O01         -4.7320     4.8070     0.3540 oh         1 7FG      -0.564100
     24 H1          -4.5860    -1.5120    -1.8170 hc         1 7FG       0.039450
     25 H2          -5.6350    -2.4700    -0.7920 hc         1 7FG       0.039450
     26 H3          -4.1410    -4.3820    -0.8750 hc         1 7FG       0.038700
     27 H4          -1.8120    -4.3390    -1.5610 hc         1 7FG       0.039450
     28 H5          -0.6600    -2.4550    -0.3890 hc         1 7FG       0.058200
     29 H6          -1.3370    -4.4310     1.0010 hc         1 7FG       0.039450
     30 H7          -1.2100    -2.9310     1.8970 hc         1 7FG       0.039450
     31 H8          -3.7560    -4.4570     1.1860 hc         1 7FG       0.038700
     32 H9          -3.1920    -3.9380     2.7370 hc         1 7FG       0.038700
     33 H10         -5.1590    -2.5630     1.7700 hc         1 7FG       0.039450
     34 H11         -3.8020    -1.6620     2.4140 hc         1 7FG       0.039450
     35 H12         -4.4690    -0.5920     0.3960 hc         1 7FG       0.058200
     36 H15         -3.7800     0.8930    -1.7680 ha         1 7FG       0.118000
     37 H16         -5.0330     3.0350    -1.5700 ha         1 7FG       0.123000
     38 H17         -2.8770     3.9580     2.0590 ha         1 7FG       0.123000
     39 H18         -1.6320     1.8190     1.8640 ha         1 7FG       0.118000
     40 H19         -0.6250     1.1230    -2.1710 ha         1 7FG       0.119500
     41 H20          1.8040     1.4700    -2.4970 ha         1 7FG       0.116500
     42 H22          2.5720    -0.4740     1.2970 ha         1 7FG       0.116500
     43 H23          0.1490    -0.8070     1.6090 ha         1 7FG       0.119500
     44 H24         -4.4300     5.2820     1.1590 ho         1 7FG       0.459000
     45 C1           3.8360     0.7430    -0.8520 ce         1 7FG      -0.073200
     46 C2           4.8920     0.3780    -0.0650 cf         1 7FG      -0.278200
     47 C3           6.3090     0.6580    -0.3960 c          1 7FG       0.597300
     48 O2           7.1450     0.1760     0.5740 os         1 7FG      -0.448100
     49 O1           6.6770     1.2420    -1.4060 o          1 7FG      -0.499000
     50 C6           8.5590     0.3680     0.4010 c3         1 7FG       0.167600
     51 C7           9.2630    -0.2580     1.6160 c3         1 7FG      -0.097100
     52 H25         -4.1560    -3.7530    -2.4860 hc         1 7FG       0.038700
     53 H26         -1.9920    -2.7770    -2.3350 hc         1 7FG       0.039450
     54 H13          4.0630     1.2710    -1.7820 ha         1 7FG       0.193000
     55 H14          4.7240    -0.1510     0.8690 ha         1 7FG       0.197000
     56 H21          8.9110    -0.1200    -0.5180 h1         1 7FG       0.048200
     57 H27          8.8060     1.4370     0.3450 h1         1 7FG       0.048200
     58 H28         10.3490    -0.1360     1.5290 hc         1 7FG       0.046033
     59 H29          8.9360     0.2260     2.5430 hc         1 7FG       0.046033
     60 H30          9.0410    -1.3290     1.6810 hc         1 7FG       0.046033
@<TRIPOS>BOND
     1     1     2 1   
     2     1     8 1   
     3     1    24 1   
     4     1    25 1   
     5     2     3 1   
     6     2    26 1   
     7     2    52 1   
     8     3     4 1   
     9     3    27 1   
    10     3    53 1   
    11     4     5 1   
    12     4     9 1   
    13     4    28 1   
    14     5     6 1   
    15     5    29 1   
    16     5    30 1   
    17     6     7 1   
    18     6    31 1   
    19     6    32 1   
    20     7     8 1   
    21     7    33 1   
    22     7    34 1   
    23     8     9 1   
    24     8    35 1   
    25     9    10 2   
    26    10    11 1   
    27    10    12 1   
    28    11    18 ar  
    29    11    22 ar  
    30    12    13 ar  
    31    12    17 ar  
    32    13    14 ar  
    33    13    36 1   
    34    14    15 ar  
    35    14    37 1   
    36    15    16 ar  
    37    15    23 1   
    38    16    17 ar  
    39    16    38 1   
    40    17    39 1   
    41    18    19 ar  
    42    18    40 1   
    43    19    20 ar  
    44    19    41 1   
    45    20    21 ar  
    46    20    45 1   
    47    21    22 ar  
    48    21    42 1   
    49    22    43 1   
    50    23    44 1   
    51    45    46 2   
    52    45    54 1   
    53    46    47 1   
    54    46    55 1   
    55    47    48 1   
    56    47    49 2   
    57    48    50 1   
    58    50    51 1   
    59    50    56 1   
    60    50    57 1   
    61    51    58 1   
    62    51    59 1   
    63    51    60 1   
@<TRIPOS>SUBSTRUCTURE
     1 7FG         1 TEMP              0 ****  ****    0 ROOT
