@<TRIPOS>MOLECULE
7FG
   60    63     1     0     0
SMALL
abcg2


@<TRIPOS>ATOM
      1 C01         -4.5580    -2.1510    -0.9320 c6         1 7FG      -0.063150
      2 C02         -3.8700    -3.4290    -1.4110 c6         1 7FG      -0.070400
      3 C03         -2.3460    -3.3100    -1.4120 c6         1 7FG      -0.063150
      4 C04         -1.7480    -2.6420    -0.1600 c6         1 7FG      -0.027000
      5 C05         -1.8680    -3.4730     1.1270 c6         1 7FG      -0.063150
      6 C06         -3.2950    -3.6110     1.6560 c6         1 7FG      -0.070400
      7 C07         -4.0620    -2.2910     1.6060 c6         1 7FG      -0.063150
      8 C08         -3.9010    -1.5020     0.2950 c6         1 7FG      -0.027000
      9 C09         -2.4310    -1.3150     0.0300 c2         1 7FG      -0.060400
     10 C10         -1.8250    -0.1190    -0.0490 ce         1 7FG      -0.035400
     11 C11         -0.3600     0.0430    -0.2230 ca         1 7FG      -0.023800
     12 C12         -2.5620     1.1700     0.0250 ca         1 7FG      -0.051800
     13 C13         -3.5400     1.5120    -0.9070 ca         1 7FG      -0.088000
     14 C14         -4.2060     2.7280    -0.8390 ca         1 7FG      -0.135000
     15 C15         -3.8950     3.6350     0.1670 ca         1 7FG       0.102100
     16 C16         -2.9100     3.3160     1.0960 ca         1 7FG      -0.135000
     17 C17         -2.2490     2.1000     1.0160 ca         1 7FG      -0.088000
     18 C18          0.1360     0.8070    -1.2800 ca         1 7FG      -0.107000
     19 C19          1.4960     1.0020    -1.4390 ca         1 7FG      -0.086000
     20 C20          2.4140     0.4580    -0.5370 ca         1 7FG      -0.079800
     21 C21          1.9180    -0.2980     0.5290 ca         1 7FG      -0.086000
     22 C22          0.5580    -0.4980     0.6810 ca         1 7FG      -0.107000
     23 O01         -4.5150     4.8550     0.2100 oh         1 7FG      -0.564100
     24 H1          -4.5410    -1.4150    -1.7420 hc         1 7FG       0.039450
     25 H2          -5.6140    -2.3480    -0.7220 hc         1 7FG       0.039450
     26 H3          -4.1830    -4.2770    -0.8030 hc         1 7FG       0.038700
     27 H4          -1.8950    -4.2980    -1.5450 hc         1 7FG       0.039450
     28 H5          -0.6850    -2.5040    -0.3620 hc         1 7FG       0.058200
     29 H6          -1.4290    -4.4620     0.9650 hc         1 7FG       0.039450
     30 H7          -1.2540    -2.9860     1.8920 hc         1 7FG       0.039450
     31 H8          -3.8320    -4.3810     1.1030 hc         1 7FG       0.038700
     32 H9          -3.2610    -3.9660     2.6890 hc         1 7FG       0.038700
     33 H10         -5.1250    -2.4670     1.7920 hc         1 7FG       0.039450
     34 H11         -3.7120    -1.6450     2.4170 hc         1 7FG       0.039450
     35 H12         -4.3850    -0.5380     0.4550 hc         1 7FG       0.058200
     36 H15         -3.7820     0.8210    -1.7050 ha         1 7FG       0.118000
     37 H16         -4.9570     2.9780    -1.5770 ha         1 7FG       0.123000
     38 H17         -2.6550     4.0240     1.8750 ha         1 7FG       0.123000
     39 H18         -1.4790     1.8710     1.7440 ha         1 7FG       0.118000
     40 H19         -0.5510     1.2530    -1.9890 ha         1 7FG       0.119500
     41 H20          1.8560     1.5900    -2.2750 ha         1 7FG       0.116500
     42 H22          2.5910    -0.7300     1.2590 ha         1 7FG       0.116500
     43 H23          0.2010    -1.0670     1.5300 ha         1 7FG       0.119500
     44 H24         -5.2910     4.8090     0.7790 ho         1 7FG       0.459000
     45 C1           3.8310     0.7230    -0.7450 ce         1 7FG      -0.073200
     46 C2           4.8500     0.3110     0.0200 cf         1 7FG      -0.278200
     47 C3           6.2320     0.6810    -0.3210 c          1 7FG       0.597300
     48 O2           7.0910     0.1840     0.5600 os         1 7FG      -0.448100
     49 O1           6.5630     1.3520    -1.2720 o          1 7FG      -0.499000
     50 C6           8.4880     0.4580     0.3710 c3         1 7FG       0.167600
     51 C7           9.2480    -0.2400     1.4720 c3         1 7FG      -0.097100
     52 H25         -4.2080    -3.6580    -2.4250 hc         1 7FG       0.038700
     53 H26         -2.0350    -2.7160    -2.2770 hc         1 7FG       0.039450
     54 H13          4.0630     1.3270    -1.6170 ha         1 7FG       0.193000
     55 H14          4.7000    -0.2970     0.9040 ha         1 7FG       0.197000
     56 H21          8.8050     0.0990    -0.6100 h1         1 7FG       0.048200
     57 H27          8.6560     1.5370     0.4040 h1         1 7FG       0.048200
     58 H28         10.3130    -0.0420     1.3510 hc         1 7FG       0.046033
     59 H29          8.9520     0.1200     2.4560 hc         1 7FG       0.046033
     60 H30          9.1040    -1.3200     1.4360 hc         1 7FG       0.046033
@<TRIPOS>BOND
     1     1     2 1   
     2     1     8 1   
     3     1    24 1   
     4     1    25 1   
     5     2     3 1   
     6     2    26 1   
     7     2    52 1   
     8     3     4 1   
     9     3    27 1   
    10     3    53 1   
    11     4     5 1   
    12     4     9 1   
    13     4    28 1   
    14     5     6 1   
    15     5    29 1   
    16     5    30 1   
    17     6     7 1   
    18     6    31 1   
    19     6    32 1   
    20     7     8 1   
    21     7    33 1   
    22     7    34 1   
    23     8     9 1   
    24     8    35 1   
    25     9    10 2   
    26    10    11 1   
    27    10    12 1   
    28    11    18 ar  
    29    11    22 ar  
    30    12    13 ar  
    31    12    17 ar  
    32    13    14 ar  
    33    13    36 1   
    34    14    15 ar  
    35    14    37 1   
    36    15    16 ar  
    37    15    23 1   
    38    16    17 ar  
    39    16    38 1   
    40    17    39 1   
    41    18    19 ar  
    42    18    40 1   
    43    19    20 ar  
    44    19    41 1   
    45    20    21 ar  
    46    20    45 1   
    47    21    22 ar  
    48    21    42 1   
    49    22    43 1   
    50    23    44 1   
    51    45    46 2   
    52    45    54 1   
    53    46    47 1   
    54    46    55 1   
    55    47    48 1   
    56    47    49 2   
    57    48    50 1   
    58    50    51 1   
    59    50    56 1   
    60    50    57 1   
    61    51    58 1   
    62    51    59 1   
    63    51    60 1   
@<TRIPOS>SUBSTRUCTURE
     1 7FG         1 TEMP              0 ****  ****    0 ROOT
