@<TRIPOS>MOLECULE
7FH
   16    16     1     0     0
SMALL
abcg2


@<TRIPOS>ATOM
      1 S1          -3.6230     0.3990    -0.0100 s          1 7FH      -0.564400
      2 C1          -1.9430     0.3780    -0.0160 cs         1 7FH       0.320600
      3 C2          -1.0940     1.5030    -0.0950 cc         1 7FH      -0.246200
      4 C3           0.2650     1.3790    -0.0930 cd         1 7FH      -0.064000
      5 C4           0.8520     0.1040    -0.0120 cd         1 7FH      -0.291200
      6 C6           2.3370    -0.0390    -0.0050 c3         1 7FH       0.377200
      7 F1           2.8850     0.5330    -1.0840 f          1 7FH      -0.107000
      8 F2           2.8780     0.5620     1.0620 f          1 7FH      -0.107000
      9 F3           2.7270    -1.3140     0.0140 f          1 7FH      -0.107000
     10 C5           0.0380    -0.9880     0.0650 cc         1 7FH       0.026600
     11 N1          -1.2910    -0.8240     0.0620 n          1 7FH      -0.011500
     12 O1          -2.0140    -1.9560     0.1460 oh         1 7FH      -0.442100
     13 H1          -1.5590     2.4750    -0.1590 ha         1 7FH       0.232000
     14 H3           0.8790     2.2680    -0.1560 ha         1 7FH       0.213000
     15 H4           0.3840    -2.0100     0.1310 h4         1 7FH       0.249000
     16 H6          -2.9510    -1.6380     0.1350 ho         1 7FH       0.522000
@<TRIPOS>BOND
     1     1     2 2   
     2     2     3 1   
     3     2    11 1   
     4     3     4 2   
     5     3    13 1   
     6     4     5 1   
     7     4    14 1   
     8     5     6 1   
     9     5    10 2   
    10     6     7 1   
    11     6     8 1   
    12     6     9 1   
    13    10    11 1   
    14    10    15 1   
    15    11    12 1   
    16    12    16 1   
@<TRIPOS>SUBSTRUCTURE
     1 7FH         1 TEMP              0 ****  ****    0 ROOT
