@<TRIPOS>MOLECULE
7FH
   16    16     1     0     0
SMALL
No Charge or Current Charge


@<TRIPOS>ATOM
      1 S1          -3.6670     0.6700    -0.2570 s          1 7FH      -0.564400
      2 C1          -2.0040     0.4430    -0.1740 cs         1 7FH       0.320600
      3 C2          -1.0990     1.5570    -0.1570 cc         1 7FH      -0.246200
      4 C3           0.2730     1.4330    -0.0780 cd         1 7FH      -0.064000
      5 C4           0.8560     0.1170    -0.0100 cd         1 7FH      -0.291200
      6 C6           2.3610    -0.0550     0.0710 c3         1 7FH       0.377200
      7 F1           2.9690     0.3960    -1.0490 f          1 7FH      -0.107000
      8 F2           2.8840     0.6330     1.1100 f          1 7FH      -0.107000
      9 F3           2.7320    -1.3460     0.2280 f          1 7FH      -0.107000
     10 C5          -0.0230    -0.9560    -0.0280 cc         1 7FH       0.026600
     11 N1          -1.4090    -0.8110    -0.1030 n          1 7FH      -0.011500
     12 O1          -2.2140    -1.9980    -0.1160 oh         1 7FH      -0.442100
     13 H1          -1.5580     2.5400    -0.2090 ha         1 7FH       0.232000
     14 H3           0.9030     2.3230    -0.0710 ha         1 7FH       0.213000
     15 H4           0.2610    -2.0030     0.0060 h4         1 7FH       0.249000
     16 H6          -2.4950    -2.1100     0.8210 ho         1 7FH       0.522000
@<TRIPOS>BOND
     1     1     2 2   
     2     2     3 1   
     3     2    11 1   
     4     3     4 2   
     5     3    13 1   
     6     4     5 1   
     7     4    14 1   
     8     5     6 1   
     9     5    10 2   
    10     6     7 1   
    11     6     8 1   
    12     6     9 1   
    13    10    11 1   
    14    10    15 1   
    15    11    12 1   
    16    12    16 1   
@<TRIPOS>SUBSTRUCTURE
     1 7FH         1 TEMP              0 ****  ****    0 ROOT
