@<TRIPOS>MOLECULE
7FI
   27    26     1     0     0
SMALL
bcc


@<TRIPOS>ATOM
      1 C4          15.1360    14.0840    14.4280 c3         1 7FI      -0.031900
      2 C6          15.0430    15.5440    13.9600 c3         1 7FI       0.149100
      3 C8          15.9440    15.8990    12.7810 c3         1 7FI      -0.056400
      4 C10         17.9290    16.9480    14.0890 c3         1 7FI      -0.067700
      5 C2          16.4160    13.7650    15.2390 c          1 7FI       0.903600
      6 O1          17.0970    12.8170    14.7810 o          1 7FI      -0.826300
      7 O5          15.0180    13.1790    13.3640 oh         1 7FI      -0.635800
      8 O7          13.7190    15.8390    13.5310 oh         1 7FI      -0.626800
      9 C9          17.4460    15.9310    13.0510 c3         1 7FI      -0.065400
     10 C11         17.5840    18.3790    13.6920 c3         1 7FI      -0.081100
     11 C12         19.4330    16.8010    14.2940 c3         1 7FI      -0.081100
     12 H1          14.2990    13.9380    15.1340 h1         1 7FI       0.018700
     13 H2          15.3000    16.1750    14.8210 h1         1 7FI       0.040700
     14 H3          15.6280    16.8780    12.4090 hc         1 7FI       0.035200
     15 H4          15.7510    15.1960    11.9670 hc         1 7FI       0.035200
     16 H5          17.4450    16.7270    15.0440 hc         1 7FI       0.084700
     17 H7          15.8390    12.6580    13.4530 ho         1 7FI       0.432000
     18 H8          13.1220    15.6740    14.2670 ho         1 7FI       0.388000
     19 H9          17.7940    14.9350    13.3350 hc         1 7FI       0.042700
     20 H10         17.9480    16.1550    12.1020 hc         1 7FI       0.042700
     21 H11         17.9760    19.0940    14.4180 hc         1 7FI       0.021033
     22 H12         18.0170    18.6260    12.7190 hc         1 7FI       0.021033
     23 H13         16.5070    18.5410    13.6260 hc         1 7FI       0.021033
     24 H14         19.6930    15.7890    14.6120 hc         1 7FI       0.021033
     25 H15         19.9760    17.0060    13.3670 hc         1 7FI       0.021033
     26 H16         19.8030    17.4930    15.0530 hc         1 7FI       0.021033
     27 O3          16.6360    14.4320    16.2610 o          1 7FI      -0.826300
@<TRIPOS>BOND
     1     1     2 1   
     2     1     5 1   
     3     1     7 1   
     4     1    12 1   
     5     2     3 1   
     6     2     8 1   
     7     2    13 1   
     8     3     9 1   
     9     3    14 1   
    10     3    15 1   
    11     4     9 1   
    12     4    10 1   
    13     4    11 1   
    14     4    16 1   
    15     5     6 1   
    16     5    27 1   
    17     7    17 1   
    18     8    18 1   
    19     9    19 1   
    20     9    20 1   
    21    10    21 1   
    22    10    22 1   
    23    10    23 1   
    24    11    24 1   
    25    11    25 1   
    26    11    26 1   
@<TRIPOS>SUBSTRUCTURE
     1 7FI         1 TEMP              0 ****  ****    0 ROOT
