@<TRIPOS>MOLECULE
7FI
   27    26     1     0     0
SMALL
No Charge or Current Charge


@<TRIPOS>ATOM
      1 C4          15.0480    14.1750    14.6220 c3         1 7FI      -0.008700
      2 C6          15.0500    15.6190    14.0350 c3         1 7FI       0.172300
      3 C8          15.9640    15.8710    12.7940 c3         1 7FI      -0.056400
      4 C10         17.9980    16.9790    14.0660 c3         1 7FI      -0.067700
      5 C2          16.4260    13.7490    15.2360 c          1 7FI       0.693000
      6 O1          16.9780    12.7680    14.7530 o          1 7FI      -0.721000
      7 O5          14.5610    13.2220    13.6320 oh         1 7FI      -0.698000
      8 O7          13.7000    15.8830    13.6430 oh         1 7FI      -0.689000
      9 C9          17.4970    15.9260    13.0350 c3         1 7FI      -0.065400
     10 C11         17.5900    18.4260    13.6970 c3         1 7FI      -0.081100
     11 C12         19.5290    16.8750    14.2560 c3         1 7FI      -0.081100
     12 H1          14.3480    14.1770    15.4700 h1         1 7FI       0.018700
     13 H2          15.3350    16.3210    14.8290 h1         1 7FI       0.040700
     14 H3          15.6640    16.8170    12.3280 hc         1 7FI       0.035200
     15 H4          15.7630    15.1010    12.0390 hc         1 7FI       0.035200
     16 H5          17.5470    16.7490    15.0390 hc         1 7FI       0.084700
     17 H7          15.2780    12.5430    13.5660 ho         1 7FI       0.471000
     18 H8          13.3660    14.9960    13.3740 ho         1 7FI       0.427000
     19 H9          17.8530    14.9340    13.3300 hc         1 7FI       0.042700
     20 H10         17.9800    16.1310    12.0710 hc         1 7FI       0.042700
     21 H11         17.9990    19.1390    14.4220 hc         1 7FI       0.021033
     22 H12         17.9640    18.6960    12.7020 hc         1 7FI       0.021033
     23 H13         16.5000    18.5430    13.7010 hc         1 7FI       0.021033
     24 H14         19.8120    15.8640    14.5730 hc         1 7FI       0.021033
     25 H15         20.0550    17.1020    13.3210 hc         1 7FI       0.021033
     26 H16         19.8730    17.5770    15.0240 hc         1 7FI       0.021033
     27 O3          16.8220    14.3210    16.2400 o          1 7FI      -0.721000
@<TRIPOS>BOND
     1     1     2 1   
     2     1     5 1   
     3     1     7 1   
     4     1    12 1   
     5     2     3 1   
     6     2     8 1   
     7     2    13 1   
     8     3     9 1   
     9     3    14 1   
    10     3    15 1   
    11     4     9 1   
    12     4    10 1   
    13     4    11 1   
    14     4    16 1   
    15     5     6 1   
    16     5    27 1   
    17     7    17 1   
    18     8    18 1   
    19     9    19 1   
    20     9    20 1   
    21    10    21 1   
    22    10    22 1   
    23    10    23 1   
    24    11    24 1   
    25    11    25 1   
    26    11    26 1   
@<TRIPOS>SUBSTRUCTURE
     1 7FI         1 TEMP              0 ****  ****    0 ROOT
