@<TRIPOS>MOLECULE
7FJ
   42    45     1     0     0
SMALL
No Charge or Current Charge


@<TRIPOS>ATOM
      1 C01         -1.9230     1.2670     0.0450 c5         1 7FJ       0.003600
      2 C02         -3.3090     0.6730     0.0360 ca         1 7FJ      -0.087300
      3 C03         -4.5210     1.3810     0.0870 ca         1 7FJ      -0.097500
      4 C04         -5.7330     0.6640     0.0630 ca         1 7FJ      -0.111000
      5 C05         -5.7210    -0.7450    -0.0110 ca         1 7FJ      -0.111000
      6 C06         -4.4980    -1.4420    -0.0620 ca         1 7FJ      -0.097500
      7 C07         -3.2980    -0.7130    -0.0380 ca         1 7FJ      -0.087300
      8 C08         -1.9020    -1.2840    -0.0780 c5         1 7FJ       0.003600
      9 C09         -1.0560    -0.0010    -0.0260 c2         1 7FJ      -0.088400
     10 C10          0.3020     0.0110    -0.0410 ce         1 7FJ      -0.009400
     11 C11          1.1150    -1.2380    -0.0730 ca         1 7FJ      -0.084800
     12 C12          1.0670    -2.1560     0.9950 ca         1 7FJ      -0.060000
     13 C13          1.8490    -3.3240     0.9600 ca         1 7FJ      -0.178250
     14 C14          2.6870    -3.5750    -0.1380 ca         1 7FJ       0.140100
     15 O01          3.4480    -4.7040    -0.1780 oh         1 7FJ      -0.533100
     16 C15          2.7480    -2.6580    -1.1970 ca         1 7FJ      -0.178250
     17 C16          1.9670    -1.4890    -1.1640 ca         1 7FJ      -0.060000
     18 C17          1.0940     1.2720    -0.0260 ca         1 7FJ      -0.084800
     19 C18          1.0070     2.1890    -1.0920 ca         1 7FJ      -0.060000
     20 C19          1.7710     3.3700    -1.0720 ca         1 7FJ      -0.178250
     21 C20          2.6270     3.6360     0.0060 ca         1 7FJ       0.140100
     22 O02          3.3630     4.7820     0.0150 oh         1 7FJ      -0.533100
     23 C21          2.7280     2.7200     1.0650 ca         1 7FJ      -0.178250
     24 C22          1.9660     1.5390     1.0470 ca         1 7FJ      -0.060000
     25 H1          -1.7620     1.9250    -0.8150 hc         1 7FJ       0.065950
     26 H2          -1.7210     1.8420     0.9550 hc         1 7FJ       0.065950
     27 H3          -4.5240     2.4670     0.1430 ha         1 7FJ       0.113000
     28 H4          -6.6790     1.1980     0.1020 ha         1 7FJ       0.111000
     29 H5          -6.6600    -1.2950    -0.0290 ha         1 7FJ       0.111000
     30 H6          -4.4840    -2.5280    -0.1190 ha         1 7FJ       0.113000
     31 H7          -1.7110    -1.9390     0.7770 hc         1 7FJ       0.065950
     32 H8          -1.7110    -1.8550    -0.9940 hc         1 7FJ       0.065950
     33 H11          0.4310    -1.9580     1.8550 ha         1 7FJ       0.117250
     34 H12          1.8010    -4.0250     1.7910 ha         1 7FJ       0.120500
     35 H13          3.2800    -5.2210     0.6380 ho         1 7FJ       0.464500
     36 H14          3.4010    -2.8500    -2.0450 ha         1 7FJ       0.120500
     37 H15          2.0200    -0.7800    -1.9870 ha         1 7FJ       0.117250
     38 H16          0.3570     1.9820    -1.9380 ha         1 7FJ       0.117250
     39 H17          1.6990     4.0760    -1.8960 ha         1 7FJ       0.120500
     40 H18          3.9000     4.7990     0.8360 ho         1 7FJ       0.464500
     41 H19          3.3940     2.9150     1.9030 ha         1 7FJ       0.120500
     42 H20          2.0470     0.8300     1.8680 ha         1 7FJ       0.117250
@<TRIPOS>BOND
     1     1     2 1   
     2     1     9 1   
     3     1    25 1   
     4     1    26 1   
     5     2     3 ar  
     6     2     7 ar  
     7     3     4 ar  
     8     3    27 1   
     9     4     5 ar  
    10     4    28 1   
    11     5     6 ar  
    12     5    29 1   
    13     6     7 ar  
    14     6    30 1   
    15     7     8 1   
    16     8     9 1   
    17     8    31 1   
    18     8    32 1   
    19     9    10 2   
    20    10    11 1   
    21    10    18 1   
    22    11    12 ar  
    23    11    17 ar  
    24    12    13 ar  
    25    12    33 1   
    26    13    14 ar  
    27    13    34 1   
    28    14    15 1   
    29    14    16 ar  
    30    15    35 1   
    31    16    17 ar  
    32    16    36 1   
    33    17    37 1   
    34    18    19 ar  
    35    18    24 ar  
    36    19    20 ar  
    37    19    38 1   
    38    20    21 ar  
    39    20    39 1   
    40    21    22 1   
    41    21    23 ar  
    42    22    40 1   
    43    23    24 ar  
    44    23    41 1   
    45    24    42 1   
@<TRIPOS>SUBSTRUCTURE
     1 7FJ         1 TEMP              0 ****  ****    0 ROOT
