@<TRIPOS>MOLECULE
7FJ
   42    45     1     0     0
SMALL
abcg2


@<TRIPOS>ATOM
      1 C01         -1.9290     1.2320     0.0150 c5         1 7FJ       0.003600
      2 C02         -3.3210     0.6710     0.0280 ca         1 7FJ      -0.087300
      3 C03         -4.5240     1.3580     0.0980 ca         1 7FJ      -0.097500
      4 C04         -5.7150     0.6420     0.0810 ca         1 7FJ      -0.111000
      5 C05         -5.6990    -0.7470    -0.0070 ca         1 7FJ      -0.111000
      6 C06         -4.4930    -1.4330    -0.0760 ca         1 7FJ      -0.097500
      7 C07         -3.3050    -0.7160    -0.0590 ca         1 7FJ      -0.087300
      8 C08         -1.9000    -1.2430    -0.1080 c5         1 7FJ       0.003600
      9 C09         -1.0380     0.0040    -0.0420 c2         1 7FJ      -0.088400
     10 C10          0.2990     0.0170    -0.0340 ce         1 7FJ      -0.009400
     11 C11          1.1020    -1.2320    -0.0350 ca         1 7FJ      -0.084800
     12 C12          0.9870    -2.1930     0.9670 ca         1 7FJ      -0.060000
     13 C13          1.7590    -3.3470     0.9560 ca         1 7FJ      -0.178250
     14 C14          2.6730    -3.5640    -0.0700 ca         1 7FJ       0.140100
     15 O01          3.4480    -4.6650    -0.1410 oh         1 7FJ      -0.533100
     16 C15          2.8110    -2.6060    -1.0740 ca         1 7FJ      -0.178250
     17 C16          2.0400    -1.4580    -1.0440 ca         1 7FJ      -0.060000
     18 C17          1.0840     1.2760    -0.0320 ca         1 7FJ      -0.084800
     19 C18          0.9340     2.2500    -1.0190 ca         1 7FJ      -0.060000
     20 C19          1.6900     3.4120    -1.0150 ca         1 7FJ      -0.178250
     21 C20          2.6300     3.6260    -0.0100 ca         1 7FJ       0.140100
     22 O02          3.3450     4.7680    -0.0450 oh         1 7FJ      -0.533100
     23 C21          2.8040     2.6590     0.9780 ca         1 7FJ      -0.178250
     24 C22          2.0450     1.5000     0.9540 ca         1 7FJ      -0.060000
     25 H1          -1.7900     1.8930    -0.8440 hc         1 7FJ       0.065950
     26 H2          -1.7180     1.8440     0.8990 hc         1 7FJ       0.065950
     27 H3          -4.5400     2.4400     0.1630 ha         1 7FJ       0.113000
     28 H4          -6.6600     1.1680     0.1360 ha         1 7FJ       0.111000
     29 H5          -6.6320    -1.2960    -0.0200 ha         1 7FJ       0.111000
     30 H6          -4.4840    -2.5150    -0.1400 ha         1 7FJ       0.113000
     31 H7          -1.7150    -1.9300     0.7210 hc         1 7FJ       0.065950
     32 H8          -1.7060    -1.8170    -1.0200 hc         1 7FJ       0.065950
     33 H11          0.2940    -2.0410     1.7850 ha         1 7FJ       0.117250
     34 H12          1.6480    -4.0730     1.7540 ha         1 7FJ       0.120500
     35 H13          3.2650    -5.2550     0.5990 ho         1 7FJ       0.464500
     36 H14          3.5250    -2.7650    -1.8730 ha         1 7FJ       0.120500
     37 H15          2.1660    -0.7220    -1.8290 ha         1 7FJ       0.117250
     38 H16          0.2230     2.0980    -1.8220 ha         1 7FJ       0.117250
     39 H17          1.5600     4.1500    -1.7970 ha         1 7FJ       0.120500
     40 H18          3.9550     4.8040     0.7010 ho         1 7FJ       0.464500
     41 H19          3.5350     2.8080     1.7640 ha         1 7FJ       0.120500
     42 H20          2.2020     0.7560     1.7260 ha         1 7FJ       0.117250
@<TRIPOS>BOND
     1     1     2 1   
     2     1     9 1   
     3     1    25 1   
     4     1    26 1   
     5     2     3 ar  
     6     2     7 ar  
     7     3     4 ar  
     8     3    27 1   
     9     4     5 ar  
    10     4    28 1   
    11     5     6 ar  
    12     5    29 1   
    13     6     7 ar  
    14     6    30 1   
    15     7     8 1   
    16     8     9 1   
    17     8    31 1   
    18     8    32 1   
    19     9    10 2   
    20    10    11 1   
    21    10    18 1   
    22    11    12 ar  
    23    11    17 ar  
    24    12    13 ar  
    25    12    33 1   
    26    13    14 ar  
    27    13    34 1   
    28    14    15 1   
    29    14    16 ar  
    30    15    35 1   
    31    16    17 ar  
    32    16    36 1   
    33    17    37 1   
    34    18    19 ar  
    35    18    24 ar  
    36    19    20 ar  
    37    19    38 1   
    38    20    21 ar  
    39    20    39 1   
    40    21    22 1   
    41    21    23 ar  
    42    22    40 1   
    43    23    24 ar  
    44    23    41 1   
    45    24    42 1   
@<TRIPOS>SUBSTRUCTURE
     1 7FJ         1 TEMP              0 ****  ****    0 ROOT
