@<TRIPOS>MOLECULE
7FK
   52    53     1     0     0
SMALL
bcc


@<TRIPOS>ATOM
      1 O3           0.6160     1.5920     1.4730 o          1 7FK      -0.574100
      2 C19         -0.0420     1.8070     0.4650 c          1 7FK       0.700700
      3 N            0.3980     2.5630    -0.5540 n          1 7FK      -0.471800
      4 C           -0.3520     2.8010    -1.7700 c3         1 7FK       0.092300
      5 C18         -1.4360     1.2560     0.3550 ca         1 7FK      -0.201600
      6 C17         -2.4820     2.0390     0.8510 ca         1 7FK       0.210100
      7 O2          -2.1640     3.2730     1.2750 oh         1 7FK      -0.482100
      8 C16         -3.7770     1.5520     0.8870 ca         1 7FK      -0.268000
      9 C15         -4.0480     0.2640     0.4370 ca         1 7FK       0.213100
     10 O1          -5.3130    -0.1640     0.5060 oh         1 7FK      -0.485100
     11 C14         -3.0010    -0.5060    -0.0640 ca         1 7FK      -0.111600
     12 CL          -3.3580    -2.1150    -0.6190 cl         1 7FK      -0.116400
     13 C13         -1.6960    -0.0220    -0.1160 ca         1 7FK       0.058700
     14 C12         -0.6150    -0.8760    -0.6960 c3         1 7FK      -0.152100
     15 C11         -0.1790    -2.0030     0.2140 c          1 7FK       0.578100
     16 O           -0.4280    -1.9970     1.3960 o          1 7FK      -0.494100
     17 C10          0.6010    -3.1200    -0.4330 c3         1 7FK      -0.176400
     18 C9           1.9600    -3.3450     0.2230 c3         1 7FK      -0.066400
     19 C8           2.9460    -2.2210    -0.0720 c3         1 7FK      -0.079400
     20 C7           4.2980    -2.4540     0.5870 c3         1 7FK      -0.070400
     21 C6           5.4180    -1.5320     0.1170 c3         1 7FK      -0.066400
     22 C5           5.2490    -0.0470     0.4410 c3         1 7FK      -0.039200
     23 C4           4.3340     0.7310    -0.4600 c2         1 7FK      -0.170200
     24 C3           3.5890     1.7620    -0.0730 c2         1 7FK      -0.163200
     25 C2           2.8780     2.7110    -0.9920 c3         1 7FK      -0.054200
     26 C1           1.6140     3.3470    -0.4150 c3         1 7FK       0.103000
     27 HC1         -1.1450     2.0700    -1.8990 h1         1 7FK       0.038033
     28 HC2         -0.7950     3.7990    -1.7720 h1         1 7FK       0.038033
     29 HC3          0.3120     2.7220    -2.6320 h1         1 7FK       0.038033
     30 H11C         1.4300     4.2960    -0.9240 h1         1 7FK       0.054200
     31 H12C         1.7690     3.5850     0.6380 h1         1 7FK       0.054200
     32 H2          -2.9450     3.7370     1.5980 ho         1 7FK       0.434000
     33 H16         -4.5900     2.1590     1.2690 ha         1 7FK       0.155000
     34 H1          -5.3930    -1.0750     0.1960 ho         1 7FK       0.445000
     35 H121        -0.9170    -1.2880    -1.6630 hc         1 7FK       0.079200
     36 H122         0.2870    -0.2930    -0.9160 hc         1 7FK       0.079200
     37 H101        -0.0130    -4.0220    -0.3510 hc         1 7FK       0.058200
     38 H102         0.7290    -2.9280    -1.5010 hc         1 7FK       0.058200
     39 H91C         1.8320    -3.4670     1.3020 hc         1 7FK       0.049700
     40 H92C         2.3720    -4.2890    -0.1440 hc         1 7FK       0.049700
     41 H81C         3.0760    -2.1390    -1.1570 hc         1 7FK       0.043200
     42 H82C         2.5390    -1.2580     0.2540 hc         1 7FK       0.043200
     43 H71C         4.1910    -2.3700     1.6730 hc         1 7FK       0.037700
     44 H72C         4.6090    -3.4880     0.3950 hc         1 7FK       0.037700
     45 H61C         6.3480    -1.8740     0.5780 hc         1 7FK       0.035200
     46 H62C         5.5600    -1.6510    -0.9630 hc         1 7FK       0.035200
     47 H51C         4.9460     0.0810     1.4860 hc         1 7FK       0.045700
     48 H52C         6.2410     0.4120     0.3650 hc         1 7FK       0.045700
     49 H4           4.3710     0.4730    -1.5180 ha         1 7FK       0.109000
     50 H3           3.5620     2.0190     0.9840 ha         1 7FK       0.130000
     51 H21C         3.5610     3.5400    -1.2080 hc         1 7FK       0.046200
     52 H22C         2.6680     2.2420    -1.9570 hc         1 7FK       0.046200
@<TRIPOS>BOND
     1     1     2 2   
     2     2     3 1   
     3     2     5 1   
     4     3     4 1   
     5     3    26 1   
     6     4    27 1   
     7     4    28 1   
     8     4    29 1   
     9     5     6 ar  
    10     5    13 ar  
    11     6     7 1   
    12     6     8 ar  
    13     7    32 1   
    14     8     9 ar  
    15     8    33 1   
    16     9    10 1   
    17     9    11 ar  
    18    10    34 1   
    19    11    12 1   
    20    11    13 ar  
    21    13    14 1   
    22    14    15 1   
    23    14    35 1   
    24    14    36 1   
    25    15    16 2   
    26    15    17 1   
    27    17    18 1   
    28    17    37 1   
    29    17    38 1   
    30    18    19 1   
    31    18    39 1   
    32    18    40 1   
    33    19    20 1   
    34    19    41 1   
    35    19    42 1   
    36    20    21 1   
    37    20    43 1   
    38    20    44 1   
    39    21    22 1   
    40    21    45 1   
    41    21    46 1   
    42    22    23 1   
    43    22    47 1   
    44    22    48 1   
    45    23    24 2   
    46    23    49 1   
    47    24    25 1   
    48    24    50 1   
    49    25    26 1   
    50    25    51 1   
    51    25    52 1   
    52    26    30 1   
    53    26    31 1   
@<TRIPOS>SUBSTRUCTURE
     1 7FK         1 TEMP              0 ****  ****    0 ROOT
