@<TRIPOS>MOLECULE
7FK
   52    53     1     0     0
SMALL
No Charge or Current Charge


@<TRIPOS>ATOM
      1 O3           0.4110     2.2720     1.7530 o          1 7FK      -0.574100
      2 C19         -0.1700     2.2010     0.6770 c          1 7FK       0.633700
      3 N            0.3900     2.7140    -0.5150 n          1 7FK      -0.404800
      4 C           -0.3960     2.7460    -1.7700 c3         1 7FK       0.092300
      5 C18         -1.4850     1.4920     0.5520 ca         1 7FK      -0.201600
      6 C17         -2.6530     2.1620     0.9530 ca         1 7FK       0.210100
      7 O2          -2.5850     3.4280     1.4520 oh         1 7FK      -0.521100
      8 C16         -3.9040     1.5510     0.8170 ca         1 7FK      -0.250000
      9 C15         -3.9980     0.2660     0.2770 ca         1 7FK       0.213100
     10 O1          -5.2290    -0.3070     0.1450 oh         1 7FK      -0.524100
     11 C14         -2.8390    -0.4250    -0.1250 ca         1 7FK      -0.020000
     12 Cl          -3.0030    -2.0510    -0.8100 cl         1 7FK      -0.208000
     13 C13         -1.5660     0.1790     0.0180 ca         1 7FK       0.058700
     14 C12         -0.3060    -0.6000    -0.3800 c3         1 7FK      -0.152100
     15 C11         -0.0410    -1.7890     0.5530 c          1 7FK       0.578100
     16 O           -0.1870    -1.6960     1.7650 o          1 7FK      -0.494100
     17 C10          0.4480    -3.0970    -0.0920 c3         1 7FK      -0.176400
     18 C9           1.9250    -3.4070     0.2550 c3         1 7FK      -0.066400
     19 C8           2.9260    -2.3020    -0.1610 c3         1 7FK      -0.079400
     20 C7           4.3750    -2.6340     0.2590 c3         1 7FK      -0.070400
     21 C6           5.4260    -1.5620    -0.1170 c3         1 7FK      -0.066400
     22 C5           5.2060    -0.1710     0.5300 c3         1 7FK      -0.039200
     23 C4           4.5600     0.8290    -0.4090 c2         1 7FK      -0.220200
     24 C3           3.3710     1.4290    -0.2360 c2         1 7FK      -0.213200
     25 C2           2.8270     2.5060    -1.1560 c3         1 7FK      -0.054200
     26 C1           1.7150     3.3780    -0.5300 c3         1 7FK       0.103000
     27 HC1         -0.5470     1.7240    -2.1410 h1         1 7FK       0.038033
     28 HC2         -1.3720     3.2140    -1.5870 h1         1 7FK       0.038033
     29 HC3          0.1310     3.3230    -2.5400 h1         1 7FK       0.038033
     30 H11C         1.6260     4.3000    -1.1190 h1         1 7FK       0.054200
     31 H12C         2.0110     3.6800     0.4830 h1         1 7FK       0.054200
     32 H2          -3.4930     3.7190     1.6800 ho         1 7FK       0.473000
     33 H16         -4.8100     2.0690     1.1200 ha         1 7FK       0.137000
     34 H1          -5.0970    -1.1960    -0.2490 ho         1 7FK       0.484000
     35 H121        -0.3630    -0.9440    -1.4180 hc         1 7FK       0.079200
     36 H122         0.6010     0.0100    -0.3650 hc         1 7FK       0.079200
     37 H101        -0.1690    -3.9190     0.2880 hc         1 7FK       0.058200
     38 H102         0.3450    -3.0510    -1.1820 hc         1 7FK       0.058200
     39 H91C         2.0070    -3.5730     1.3370 hc         1 7FK       0.049700
     40 H92C         2.2110    -4.3500    -0.2280 hc         1 7FK       0.049700
     41 H81C         2.8820    -2.1550    -1.2470 hc         1 7FK       0.043200
     42 H82C         2.6320    -1.3550     0.3060 hc         1 7FK       0.043200
     43 H71C         4.4070    -2.7940     1.3440 hc         1 7FK       0.037700
     44 H72C         4.6680    -3.5840    -0.2040 hc         1 7FK       0.037700
     45 H61C         6.4070    -1.9360     0.2030 hc         1 7FK       0.035200
     46 H62C         5.4810    -1.4640    -1.2080 hc         1 7FK       0.035200
     47 H51C         4.6260    -0.2760     1.4560 hc         1 7FK       0.045700
     48 H52C         6.1830     0.2240     0.8360 hc         1 7FK       0.045700
     49 H4           5.1790     1.0900    -1.2690 ha         1 7FK       0.159000
     50 H3           2.7510     1.1970     0.6330 ha         1 7FK       0.180000
     51 H21C         3.6490     3.1680    -1.4570 hc         1 7FK       0.046200
     52 H22C         2.4500     2.0540    -2.0810 hc         1 7FK       0.046200
@<TRIPOS>BOND
     1     1     2 2   
     2     2     3 1   
     3     2     5 1   
     4     3     4 1   
     5     3    26 1   
     6     4    27 1   
     7     4    28 1   
     8     4    29 1   
     9     5     6 ar  
    10     5    13 ar  
    11     6     7 1   
    12     6     8 ar  
    13     7    32 1   
    14     8     9 ar  
    15     8    33 1   
    16     9    10 1   
    17     9    11 ar  
    18    10    34 1   
    19    11    12 1   
    20    11    13 ar  
    21    13    14 1   
    22    14    15 1   
    23    14    35 1   
    24    14    36 1   
    25    15    16 2   
    26    15    17 1   
    27    17    18 1   
    28    17    37 1   
    29    17    38 1   
    30    18    19 1   
    31    18    39 1   
    32    18    40 1   
    33    19    20 1   
    34    19    41 1   
    35    19    42 1   
    36    20    21 1   
    37    20    43 1   
    38    20    44 1   
    39    21    22 1   
    40    21    45 1   
    41    21    46 1   
    42    22    23 1   
    43    22    47 1   
    44    22    48 1   
    45    23    24 2   
    46    23    49 1   
    47    24    25 1   
    48    24    50 1   
    49    25    26 1   
    50    25    51 1   
    51    25    52 1   
    52    26    30 1   
    53    26    31 1   
@<TRIPOS>SUBSTRUCTURE
     1 7FK         1 TEMP              0 ****  ****    0 ROOT
