@<TRIPOS>MOLECULE
7FL
   44    46     1     0     0
SMALL
No Charge or Current Charge


@<TRIPOS>ATOM
      1 O01         -6.5380    -0.5590    19.2310 oh         1 7FL      -0.539100
      2 C02         -6.1180     0.6000    19.8110 ca         1 7FL       0.132100
      3 C03         -6.8480     1.7800    19.6120 ca         1 7FL      -0.173000
      4 C04         -6.4220     2.9810    20.2050 ca         1 7FL      -0.062750
      5 C05         -5.2650     3.0050    21.0100 ca         1 7FL      -0.080800
      6 C06         -4.7940     4.2790    21.6290 ce         1 7FL      -0.024400
      7 C07         -3.4070     4.6620    21.2330 ca         1 7FL      -0.080800
      8 C08         -2.4020     4.8350    22.2070 ca         1 7FL      -0.062750
      9 C09         -1.0930     5.1790    21.8250 ca         1 7FL      -0.173000
     10 C10         -0.7810     5.3450    20.4660 ca         1 7FL       0.132100
     11 O11          0.4840     5.6770    20.0870 oh         1 7FL      -0.539100
     12 C12         -1.7730     5.1620    19.4910 ca         1 7FL      -0.173000
     13 C13         -3.0820     4.8180    19.8720 ca         1 7FL      -0.062750
     14 C14         -5.5610     5.0230    22.4790 c2         1 7FL      -0.074400
     15 C15         -5.0980     6.3760    23.0380 c3         1 7FL      -0.041200
     16 C16         -6.1770     7.4790    23.1630 c3         1 7FL      -0.067400
     17 C17         -6.9600     7.4490    24.4920 c3         1 7FL      -0.072900
     18 C18         -7.9410     6.2710    24.6410 c3         1 7FL      -0.072900
     19 C19         -7.3190     4.8750    24.4200 c3         1 7FL      -0.067400
     20 C20         -6.9510     4.5710    22.9470 c3         1 7FL      -0.041200
     21 C21         -4.5300     1.8180    21.1950 ca         1 7FL      -0.062750
     22 C22         -4.9570     0.6170    20.6010 ca         1 7FL      -0.173000
     23 H1          -5.9110    -1.2740    19.4760 ho         1 7FL       0.461500
     24 H2          -7.7430     1.7680    18.9950 ha         1 7FL       0.121250
     25 H3          -6.9870     3.8960    20.0380 ha         1 7FL       0.117500
     26 H5          -2.6370     4.6970    23.2600 ha         1 7FL       0.117500
     27 H6          -0.3290     5.3120    22.5880 ha         1 7FL       0.121250
     28 H7           1.0380     5.7610    20.8920 ho         1 7FL       0.461500
     29 H8          -1.5290     5.2860    18.4390 ha         1 7FL       0.121250
     30 H9          -3.8460     4.6760    19.1110 ha         1 7FL       0.117500
     31 H11         -4.6140     6.2300    24.0120 hc         1 7FL       0.048950
     32 H12         -4.3200     6.7920    22.3880 hc         1 7FL       0.048950
     33 H13         -5.6720     8.4520    23.1020 hc         1 7FL       0.039950
     34 H14         -6.8650     7.4390    22.3090 hc         1 7FL       0.039950
     35 H15         -6.2520     7.4370    25.3300 hc         1 7FL       0.036450
     36 H16         -7.5290     8.3830    24.5860 hc         1 7FL       0.036450
     37 H17         -8.3720     6.3070    25.6490 hc         1 7FL       0.036450
     38 H18         -8.7790     6.4070    23.9450 hc         1 7FL       0.036450
     39 H19         -8.0600     4.1320    24.7420 hc         1 7FL       0.039950
     40 H20         -6.4460     4.7350    25.0690 hc         1 7FL       0.039950
     41 H21         -7.7210     4.9910    22.2880 hc         1 7FL       0.048950
     42 H22         -7.0380     3.4840    22.8360 hc         1 7FL       0.048950
     43 H23         -3.6290     1.8280    21.8050 ha         1 7FL       0.117500
     44 H24         -4.3810    -0.2920    20.7570 ha         1 7FL       0.121250
@<TRIPOS>BOND
     1     1     2 1   
     2     1    23 1   
     3     2     3 ar  
     4     2    22 ar  
     5     3     4 ar  
     6     3    24 1   
     7     4     5 ar  
     8     4    25 1   
     9     5     6 1   
    10     5    21 ar  
    11     6     7 1   
    12     6    14 2   
    13     7     8 ar  
    14     7    13 ar  
    15     8     9 ar  
    16     8    26 1   
    17     9    10 ar  
    18     9    27 1   
    19    10    11 1   
    20    10    12 ar  
    21    11    28 1   
    22    12    13 ar  
    23    12    29 1   
    24    13    30 1   
    25    14    15 1   
    26    14    20 1   
    27    15    16 1   
    28    15    31 1   
    29    15    32 1   
    30    16    17 1   
    31    16    33 1   
    32    16    34 1   
    33    17    18 1   
    34    17    35 1   
    35    17    36 1   
    36    18    19 1   
    37    18    37 1   
    38    18    38 1   
    39    19    20 1   
    40    19    39 1   
    41    19    40 1   
    42    20    41 1   
    43    20    42 1   
    44    21    22 ar  
    45    21    43 1   
    46    22    44 1   
@<TRIPOS>SUBSTRUCTURE
     1 7FL         1 TEMP              0 ****  ****    0 ROOT
