@<TRIPOS>MOLECULE
7FL
   44    46     1     0     0
SMALL
abcg2


@<TRIPOS>ATOM
      1 O01         -6.5590    -0.5080    19.1900 oh         1 7FL      -0.539100
      2 C02         -6.1140     0.6310    19.8010 ca         1 7FL       0.132100
      3 C03         -6.8920     1.7800    19.6860 ca         1 7FL      -0.173000
      4 C04         -6.4770     2.9570    20.2940 ca         1 7FL      -0.062750
      5 C05         -5.2890     3.0260    21.0280 ca         1 7FL      -0.080800
      6 C06         -4.8170     4.2920    21.6540 ce         1 7FL      -0.024400
      7 C07         -3.4250     4.6650    21.2790 ca         1 7FL      -0.080800
      8 C08         -2.4400     4.9090    22.2380 ca         1 7FL      -0.062750
      9 C09         -1.1370     5.2300    21.8780 ca         1 7FL      -0.173000
     10 C10         -0.7920     5.3130    20.5310 ca         1 7FL       0.132100
     11 O11          0.4710     5.6270    20.1130 oh         1 7FL      -0.539100
     12 C12         -1.7550     5.0630    19.5550 ca         1 7FL      -0.173000
     13 C13         -3.0480     4.7340    19.9330 ca         1 7FL      -0.062750
     14 C14         -5.5790     5.0370    22.4850 c2         1 7FL      -0.074400
     15 C15         -5.1060     6.3810    22.9960 c3         1 7FL      -0.041200
     16 C16         -6.1890     7.4670    23.1330 c3         1 7FL      -0.067400
     17 C17         -6.9480     7.4360    24.4610 c3         1 7FL      -0.072900
     18 C18         -7.9060     6.2600    24.6350 c3         1 7FL      -0.072900
     19 C19         -7.2870     4.8780    24.4180 c3         1 7FL      -0.067400
     20 C20         -6.9380     4.5640    22.9520 c3         1 7FL      -0.041200
     21 C21         -4.5150     1.8630    21.1110 ca         1 7FL      -0.062750
     22 C22         -4.9200     0.6750    20.5180 ca         1 7FL      -0.173000
     23 H1          -5.9340    -1.2280    19.3430 ho         1 7FL       0.461500
     24 H2          -7.8110     1.7440    19.1150 ha         1 7FL       0.121250
     25 H3          -7.0860     3.8460    20.1860 ha         1 7FL       0.117500
     26 H5          -2.6920     4.8390    23.2880 ha         1 7FL       0.117500
     27 H6          -0.3850     5.4100    22.6390 ha         1 7FL       0.121250
     28 H7           1.0430     5.7780    20.8780 ho         1 7FL       0.461500
     29 H8          -1.4800     5.1250    18.5090 ha         1 7FL       0.121250
     30 H9          -3.7850     4.5300    19.1660 ha         1 7FL       0.117500
     31 H11         -4.6310     6.2610    23.9770 hc         1 7FL       0.048950
     32 H12         -4.3220     6.7470    22.3340 hc         1 7FL       0.048950
     33 H13         -5.6920     8.4380    23.0490 hc         1 7FL       0.039950
     34 H14         -6.8910     7.4100    22.2940 hc         1 7FL       0.039950
     35 H15         -6.2110     7.4210    25.2730 hc         1 7FL       0.036450
     36 H16         -7.5120     8.3670    24.5750 hc         1 7FL       0.036450
     37 H17         -8.3370     6.3070    25.6400 hc         1 7FL       0.036450
     38 H18         -8.7420     6.3720    23.9350 hc         1 7FL       0.036450
     39 H19         -8.0080     4.1270    24.7520 hc         1 7FL       0.039950
     40 H20         -6.4020     4.7560    25.0520 hc         1 7FL       0.039950
     41 H21         -7.7210     5.0030    22.3230 hc         1 7FL       0.048950
     42 H22         -7.0040     3.4880    22.7960 hc         1 7FL       0.048950
     43 H23         -3.5790     1.8870    21.6550 ha         1 7FL       0.117500
     44 H24         -4.3100    -0.2180    20.6050 ha         1 7FL       0.121250
@<TRIPOS>BOND
     1     1     2 1   
     2     1    23 1   
     3     2     3 ar  
     4     2    22 ar  
     5     3     4 ar  
     6     3    24 1   
     7     4     5 ar  
     8     4    25 1   
     9     5     6 1   
    10     5    21 ar  
    11     6     7 1   
    12     6    14 2   
    13     7     8 ar  
    14     7    13 ar  
    15     8     9 ar  
    16     8    26 1   
    17     9    10 ar  
    18     9    27 1   
    19    10    11 1   
    20    10    12 ar  
    21    11    28 1   
    22    12    13 ar  
    23    12    29 1   
    24    13    30 1   
    25    14    15 1   
    26    14    20 1   
    27    15    16 1   
    28    15    31 1   
    29    15    32 1   
    30    16    17 1   
    31    16    33 1   
    32    16    34 1   
    33    17    18 1   
    34    17    35 1   
    35    17    36 1   
    36    18    19 1   
    37    18    37 1   
    38    18    38 1   
    39    19    20 1   
    40    19    39 1   
    41    19    40 1   
    42    20    41 1   
    43    20    42 1   
    44    21    22 ar  
    45    21    43 1   
    46    22    44 1   
@<TRIPOS>SUBSTRUCTURE
     1 7FL         1 TEMP              0 ****  ****    0 ROOT
