@<TRIPOS>MOLECULE
7FN
   13    13     1     0     0
SMALL
abcg2


@<TRIPOS>ATOM
      1 OAH         -2.7700     2.6430    26.3160 o          1 7FN      -0.736750
      2 CAF         -2.7070     3.0820    25.1380 c          1 7FN       0.627500
      3 OAI         -3.2390     2.5870    24.1150 o          1 7FN      -0.736750
      4 CAA         -1.9050     4.3390    24.9620 cc         1 7FN       0.073500
      5 OAE         -1.7740     4.8660    23.7080 os         1 7FN      -0.199000
      6 CAD         -1.0240     6.0050    23.8010 cc         1 7FN       0.073500
      7 CAG         -0.7310     6.7850    22.5520 c          1 7FN       0.627500
      8 OAK         -0.0470     7.8280    22.7160 o          1 7FN      -0.736750
      9 OAJ         -1.1880     6.3400    21.4710 o          1 7FN      -0.736750
     10 CAC         -0.6760     6.2060    25.1080 cd         1 7FN      -0.234000
     11 CAB         -1.2420     5.1360    25.8530 cd         1 7FN      -0.234000
     12 H3          -0.0860     7.0270    25.4790 ha         1 7FN       0.105000
     13 H4          -1.1760     4.9680    26.9150 ha         1 7FN       0.105000
@<TRIPOS>BOND
     1     1     2 1   
     2     2     3 1   
     3     2     4 1   
     4     4     5 1   
     5     4    11 2   
     6     5     6 1   
     7     6     7 1   
     8     6    10 2   
     9     7     8 1   
    10     7     9 1   
    11    10    11 1   
    12    10    12 1   
    13    11    13 1   
@<TRIPOS>SUBSTRUCTURE
     1 7FN         1 TEMP              0 ****  ****    0 ROOT
