@<TRIPOS>MOLECULE
7FN
   13    13     1     0     0
SMALL
No Charge or Current Charge


@<TRIPOS>ATOM
      1 OAH         -2.7640     2.6670    26.3780 o          1 7FN      -0.736750
      2 CAF         -2.7070     3.0580    25.2190 c          1 7FN       0.627500
      3 OAI         -3.2560     2.4540    24.3070 o          1 7FN      -0.736750
      4 CAA         -1.9410     4.3150    24.9070 cc         1 7FN       0.073500
      5 OAE         -1.8180     4.8370    23.6310 os         1 7FN      -0.199000
      6 CAD         -1.0520     5.9840    23.7410 cc         1 7FN       0.073500
      7 CAG         -0.6850     6.8540    22.5700 c          1 7FN       0.627500
      8 OAK         -0.0020     7.8530    22.7580 o          1 7FN      -0.736750
      9 OAJ         -1.0780     6.5430    21.4530 o          1 7FN      -0.736750
     10 CAC         -0.7030     6.1770    25.0570 cd         1 7FN      -0.234000
     11 CAB         -1.2670     5.1170    25.7970 cd         1 7FN      -0.234000
     12 H3          -0.1040     6.9930    25.4480 ha         1 7FN       0.105000
     13 H4          -1.1870     4.9590    26.8680 ha         1 7FN       0.105000
@<TRIPOS>BOND
     1     1     2 1   
     2     2     3 1   
     3     2     4 1   
     4     4     5 1   
     5     4    11 2   
     6     5     6 1   
     7     6     7 1   
     8     6    10 2   
     9     7     8 1   
    10     7     9 1   
    11    10    11 1   
    12    10    12 1   
    13    11    13 1   
@<TRIPOS>SUBSTRUCTURE
     1 7FN         1 TEMP              0 ****  ****    0 ROOT
