@<TRIPOS>MOLECULE
7FO
   51    55     1     0     0
SMALL
abcg2


@<TRIPOS>ATOM
      1 C01         11.2200     7.3110    32.4940 ce         1 7FO      -0.056400
      2 C02         11.3490     8.2910    31.3290 c5         1 7FO       0.177500
      3 C03         11.4070     7.4710    30.0120 c5         1 7FO      -0.064400
      4 C04         12.7740     6.7570    30.1880 c5         1 7FO      -0.374700
      5 C05         12.4360     6.7340    32.6010 cf         1 7FO      -0.079400
      6 C06         13.2810     7.4090    31.5240 c5         1 7FO       0.219500
      7 O01         12.7190     8.7170    31.4430 os         1 7FO      -0.411000
      8 C07         12.9140     5.5760    33.3540 ca         1 7FO      -0.081800
      9 C08          9.9730     7.0860    33.2130 ca         1 7FO      -0.079800
     10 C09          8.7390     7.3630    32.6070 ca         1 7FO      -0.055500
     11 C10          7.5410     7.1550    33.2740 ca         1 7FO      -0.172500
     12 C11          7.5510     6.6760    34.5810 ca         1 7FO       0.143100
     13 C12          8.7670     6.4180    35.2150 ca         1 7FO      -0.172500
     14 C13          9.9560     6.6200    34.5360 ca         1 7FO      -0.055500
     15 C14         14.1960     5.5690    33.9120 ca         1 7FO      -0.057500
     16 C15         14.6760     4.4670    34.6030 ca         1 7FO      -0.176500
     17 C16         13.8800     3.3330    34.7360 ca         1 7FO       0.140100
     18 C17         12.6020     3.3120    34.1750 ca         1 7FO      -0.176500
     19 C18         12.1320     4.4200    33.4930 ca         1 7FO      -0.057500
     20 O02         14.3000     2.2140    35.3920 oh         1 7FO      -0.534100
     21 O03          6.3510     6.4840    35.1990 oh         1 7FO      -0.535100
     22 C19         15.8770     5.8640    29.9900 ca         1 7FO       0.130100
     23 C20         15.7940     4.7990    30.8720 ca         1 7FO      -0.117500
     24 C21         16.7150     4.7020    31.9070 ca         1 7FO      -0.064500
     25 C22         17.6800     5.6890    32.0540 ca         1 7FO       0.188000
     26 C23         17.7650     6.7530    31.1620 ca         1 7FO      -0.064500
     27 C24         16.8610     6.8350    30.1080 ca         1 7FO      -0.117500
     28 I01         19.0240     5.5810    33.6810 i          1 7FO      -0.303000
     29 S01         13.8430     7.0450    28.7790 s6         1 7FO       1.351700
     30 O05         14.4680     8.3360    28.8750 o          1 7FO      -0.518500
     31 O06         13.1720     6.6800    27.5630 o          1 7FO      -0.518500
     32 O04         14.9630     5.8880    28.9250 os         1 7FO      -0.458800
     33 H2          10.6780     9.1430    31.3180 h1         1 7FO       0.107700
     34 H3          11.4040     8.1460    29.1580 hc         1 7FO       0.071200
     35 H4          10.5900     6.7620    29.9040 hc         1 7FO       0.071200
     36 H5          12.6920     5.6740    30.2530 h1         1 7FO       0.112700
     37 H7          14.3540     7.4430    31.6710 h1         1 7FO       0.106700
     38 H8           8.7080     7.7320    31.5900 ha         1 7FO       0.119500
     39 H9           6.5950     7.3630    32.7910 ha         1 7FO       0.125000
     40 H10          8.7750     6.0650    36.2400 ha         1 7FO       0.125000
     41 H11         10.8900     6.4230    35.0440 ha         1 7FO       0.119500
     42 H12         14.8330     6.4370    33.8020 ha         1 7FO       0.122000
     43 H13         15.6780     4.4760    35.0140 ha         1 7FO       0.127000
     44 H14         11.9950     2.4200    34.2700 ha         1 7FO       0.127000
     45 H15         11.1460     4.3920    33.0510 ha         1 7FO       0.122000
     46 H16         15.1950     2.3480    35.7340 ho         1 7FO       0.466000
     47 H17          6.4900     6.1460    36.0940 ho         1 7FO       0.465000
     48 H18         15.0120     4.0610    30.7630 ha         1 7FO       0.147000
     49 H19         16.6550     3.8760    32.5990 ha         1 7FO       0.136500
     50 H20         18.5250     7.5130    31.2720 ha         1 7FO       0.136500
     51 H21         16.9160     7.6470    29.3980 ha         1 7FO       0.147000
@<TRIPOS>BOND
     1     1     2 1   
     2     1     5 2   
     3     1     9 1   
     4     2     3 1   
     5     2     7 1   
     6     2    33 1   
     7     3     4 1   
     8     3    34 1   
     9     3    35 1   
    10     4     6 1   
    11     4    29 1   
    12     4    36 1   
    13     5     6 1   
    14     5     8 1   
    15     6     7 1   
    16     6    37 1   
    17     8    15 ar  
    18     8    19 ar  
    19     9    10 ar  
    20     9    14 ar  
    21    10    11 ar  
    22    10    38 1   
    23    11    12 ar  
    24    11    39 1   
    25    12    13 ar  
    26    12    21 1   
    27    13    14 ar  
    28    13    40 1   
    29    14    41 1   
    30    15    16 ar  
    31    15    42 1   
    32    16    17 ar  
    33    16    43 1   
    34    17    18 ar  
    35    17    20 1   
    36    18    19 ar  
    37    18    44 1   
    38    19    45 1   
    39    20    46 1   
    40    21    47 1   
    41    22    23 ar  
    42    22    27 ar  
    43    22    32 1   
    44    23    24 ar  
    45    23    48 1   
    46    24    25 ar  
    47    24    49 1   
    48    25    26 ar  
    49    25    28 1   
    50    26    27 ar  
    51    26    50 1   
    52    27    51 1   
    53    29    30 2   
    54    29    31 2   
    55    29    32 1   
@<TRIPOS>SUBSTRUCTURE
     1 7FO         1 TEMP              0 ****  ****    0 ROOT
