@<TRIPOS>MOLECULE
7FO
   51    55     1     0     0
SMALL
No Charge or Current Charge


@<TRIPOS>ATOM
      1 C01         11.2180     7.2650    32.3840 ce         1 7FO      -0.056400
      2 C02         11.3410     8.3170    31.2700 c5         1 7FO       0.177500
      3 C03         11.3890     7.4840    29.9480 c5         1 7FO      -0.064400
      4 C04         12.8190     6.8130    30.0810 c5         1 7FO      -0.374700
      5 C05         12.4610     6.7070    32.5070 cf         1 7FO      -0.079400
      6 C06         13.3050     7.4220    31.4310 c5         1 7FO       0.219500
      7 O01         12.7060     8.7140    31.3990 os         1 7FO      -0.411000
      8 C07         12.9700     5.6020    33.3390 ca         1 7FO      -0.081800
      9 C08          9.9660     7.0110    33.1520 ca         1 7FO      -0.079800
     10 C09          8.7110     7.1030    32.5170 ca         1 7FO      -0.055500
     11 C10          7.5300     6.8690    33.2440 ca         1 7FO      -0.172500
     12 C11          7.5940     6.5490    34.6070 ca         1 7FO       0.143100
     13 C12          8.8380     6.4650    35.2500 ca         1 7FO      -0.172500
     14 C13         10.0210     6.6990    34.5250 ca         1 7FO      -0.055500
     15 C14         14.2580     5.6680    33.9050 ca         1 7FO      -0.057500
     16 C15         14.7350     4.6180    34.7100 ca         1 7FO      -0.176500
     17 C16         13.9320     3.4900    34.9400 ca         1 7FO       0.140100
     18 C17         12.6530     3.4140    34.3740 ca         1 7FO      -0.176500
     19 C18         12.1710     4.4670    33.5780 ca         1 7FO      -0.057500
     20 O02         14.3890     2.4670    35.7150 oh         1 7FO      -0.534100
     21 O03          6.4430     6.3260    35.3020 oh         1 7FO      -0.535100
     22 C19         15.8420     5.9360    29.8330 ca         1 7FO       0.130100
     23 C20         15.6110     4.7640    30.5730 ca         1 7FO      -0.117500
     24 C21         16.4040     4.4750    31.7000 ca         1 7FO      -0.064500
     25 C22         17.4270     5.3580    32.0810 ca         1 7FO       0.188000
     26 C23         17.6670     6.5250    31.3360 ca         1 7FO      -0.064500
     27 C24         16.8800     6.8110    30.2050 ca         1 7FO      -0.117500
     28 I01         18.6550     4.9120    33.8080 i          1 7FO      -0.303000
     29 S01         13.9660     7.3770    28.7040 s6         1 7FO       1.351700
     30 O05         14.6330     8.6310    29.0780 o          1 7FO      -0.518500
     31 O06         13.2560     7.2980    27.4200 o          1 7FO      -0.518500
     32 O04         15.0930     6.1710    28.7100 os         1 7FO      -0.458800
     33 H2          10.6360     9.1590    31.3050 h1         1 7FO       0.107700
     34 H3          11.2870     8.1360    29.0720 hc         1 7FO       0.071200
     35 H4          10.5810     6.7450    29.8940 hc         1 7FO       0.071200
     36 H5          12.7970     5.7180    30.0620 h1         1 7FO       0.112700
     37 H7          14.3890     7.4590    31.6150 h1         1 7FO       0.106700
     38 H8           8.6460     7.3470    31.4590 ha         1 7FO       0.119500
     39 H9           6.5650     6.9370    32.7470 ha         1 7FO       0.125000
     40 H10          8.8990     6.2240    36.3090 ha         1 7FO       0.125000
     41 H11         10.9800     6.6440    35.0340 ha         1 7FO       0.119500
     42 H12         14.8860     6.5420    33.7400 ha         1 7FO       0.122000
     43 H13         15.7250     4.6890    35.1520 ha         1 7FO       0.127000
     44 H14         12.0310     2.5400    34.5520 ha         1 7FO       0.127000
     45 H15         11.1780     4.3980    33.1380 ha         1 7FO       0.122000
     46 H16         15.2890     2.6940    36.0320 ho         1 7FO       0.466000
     47 H17          6.6770     6.1190    36.2320 ho         1 7FO       0.465000
     48 H18         14.8240     4.0770    30.2720 ha         1 7FO       0.147000
     49 H19         16.2270     3.5700    32.2740 ha         1 7FO       0.136500
     50 H20         18.4680     7.1980    31.6290 ha         1 7FO       0.136500
     51 H21         17.0860     7.7020    29.6160 ha         1 7FO       0.147000
@<TRIPOS>BOND
     1     1     2 1   
     2     1     5 2   
     3     1     9 1   
     4     2     3 1   
     5     2     7 1   
     6     2    33 1   
     7     3     4 1   
     8     3    34 1   
     9     3    35 1   
    10     4     6 1   
    11     4    29 1   
    12     4    36 1   
    13     5     6 1   
    14     5     8 1   
    15     6     7 1   
    16     6    37 1   
    17     8    15 ar  
    18     8    19 ar  
    19     9    10 ar  
    20     9    14 ar  
    21    10    11 ar  
    22    10    38 1   
    23    11    12 ar  
    24    11    39 1   
    25    12    13 ar  
    26    12    21 1   
    27    13    14 ar  
    28    13    40 1   
    29    14    41 1   
    30    15    16 ar  
    31    15    42 1   
    32    16    17 ar  
    33    16    43 1   
    34    17    18 ar  
    35    17    20 1   
    36    18    19 ar  
    37    18    44 1   
    38    19    45 1   
    39    20    46 1   
    40    21    47 1   
    41    22    23 ar  
    42    22    27 ar  
    43    22    32 1   
    44    23    24 ar  
    45    23    48 1   
    46    24    25 ar  
    47    24    49 1   
    48    25    26 ar  
    49    25    28 1   
    50    26    27 ar  
    51    26    50 1   
    52    27    51 1   
    53    29    30 2   
    54    29    31 2   
    55    29    32 1   
@<TRIPOS>SUBSTRUCTURE
     1 7FO         1 TEMP              0 ****  ****    0 ROOT
