@<TRIPOS>MOLECULE
7FP
   58    62     1     0     0
SMALL
No Charge or Current Charge


@<TRIPOS>ATOM
      1 C01         20.5740    -4.7760     7.4310 ce         1 7FP      -0.063400
      2 C02         20.1510    -5.9670     8.3070 c5         1 7FP       0.178500
      3 C03         19.4920    -5.3140     9.5700 c5         1 7FP      -0.066400
      4 C04         20.7700    -4.6910    10.2660 c5         1 7FP      -0.346700
      5 C05         21.6770    -4.2370     8.0370 cf         1 7FP      -0.071400
      6 C06         21.8900    -5.1280     9.2820 c5         1 7FP       0.218500
      7 O01         21.4080    -6.3900     8.8310 os         1 7FP      -0.414000
      8 C07         22.4790    -3.0290     7.7540 ca         1 7FP      -0.079800
      9 C08         19.8830    -4.3980     6.1660 ca         1 7FP      -0.076800
     10 C09         18.4800    -4.4820     6.0670 ca         1 7FP      -0.057000
     11 C10         17.8300    -4.1340     4.8690 ca         1 7FP      -0.172000
     12 C11         18.5800    -3.7070     3.7620 ca         1 7FP       0.143100
     13 C12         19.9770    -3.6320     3.8500 ca         1 7FP      -0.172000
     14 C13         20.6290    -3.9790     5.0460 ca         1 7FP      -0.057000
     15 C14         23.8480    -2.9790     8.0910 ca         1 7FP      -0.055500
     16 C15         24.6060    -1.8230     7.8280 ca         1 7FP      -0.173000
     17 C16         23.9990    -0.7060     7.2330 ca         1 7FP       0.144100
     18 C17         22.6380    -0.7430     6.9030 ca         1 7FP      -0.173000
     19 C18         21.8800    -1.8970     7.1640 ca         1 7FP      -0.055500
     20 O02         24.7260     0.4170     6.9760 oh         1 7FP      -0.534100
     21 O03         17.9590    -3.3690     2.5980 oh         1 7FP      -0.534100
     22 C19         23.4770    -5.5170    13.0100 ca         1 7FP       0.114100
     23 C20         23.1990    -5.9560    14.3180 ca         1 7FP      -0.091000
     24 C21         24.1670    -6.6830    15.0340 ca         1 7FP      -0.120000
     25 C22         25.4230    -6.9560    14.4620 ca         1 7FP      -0.021000
     26 C23         25.6930    -6.5190    13.1480 ca         1 7FP      -0.120000
     27 C24         24.7260    -5.7920    12.4310 ca         1 7FP      -0.091000
     28 N01         26.3590    -7.7070    15.2200 ns         1 7FP      -0.170000
     29 C25         27.7460    -7.6880    15.2520 c          1 7FP       0.606100
     30 C26         28.4620    -6.4350    14.7380 c3         1 7FP      -0.173100
     31 O05         28.3740    -8.6060    15.7650 o          1 7FP      -0.590100
     32 S01         21.1070    -5.4850    11.9230 s6         1 7FP       1.338700
     33 O06         20.1190    -4.9920    12.8920 o          1 7FP      -0.531000
     34 O07         21.3070    -6.9340    11.7800 o          1 7FP      -0.531000
     35 O04         22.5560    -4.7930    12.2970 os         1 7FP      -0.468800
     36 H2          19.5920    -6.7720     7.8110 h1         1 7FP       0.106700
     37 H3          18.7460    -4.5550     9.3030 hc         1 7FP       0.070200
     38 H4          18.9830    -6.0650    10.1850 hc         1 7FP       0.070200
     39 H5          20.7220    -3.6100    10.4300 h1         1 7FP       0.122700
     40 H7          22.9150    -5.1790     9.6750 h1         1 7FP       0.104700
     41 H8          17.8890    -4.8100     6.9190 ha         1 7FP       0.119000
     42 H9          16.7470    -4.1990     4.8100 ha         1 7FP       0.124500
     43 H10         20.5590    -3.3070     2.9900 ha         1 7FP       0.124500
     44 H11         21.7140    -3.9280     5.1010 ha         1 7FP       0.119000
     45 H12         24.3370    -3.8390     8.5430 ha         1 7FP       0.119000
     46 H13         25.6610    -1.8050     8.0890 ha         1 7FP       0.125000
     47 H14         22.1660     0.1240     6.4490 ha         1 7FP       0.125000
     48 H15         20.8200    -1.9040     6.9210 ha         1 7FP       0.119000
     49 H16         25.6490     0.2640     7.2700 ho         1 7FP       0.465000
     50 H17         16.9920    -3.4830     2.7170 ho         1 7FP       0.465000
     51 H18         22.2420    -5.7310    14.7830 ha         1 7FP       0.135500
     52 H19         23.9420    -7.0230    16.0430 ha         1 7FP       0.129000
     53 H20         26.6360    -6.7530    12.6640 ha         1 7FP       0.129000
     54 H21         24.9400    -5.4500    11.4220 ha         1 7FP       0.135500
     55 H22         25.9480    -8.4730    15.7370 hn         1 7FP       0.161000
     56 H23         29.4230    -6.2870    15.2430 hc         1 7FP       0.066033
     57 H24         28.6520    -6.5610    13.6670 hc         1 7FP       0.066033
     58 H25         27.8160    -5.5530    14.8100 hc         1 7FP       0.066033
@<TRIPOS>BOND
     1     1     2 1   
     2     1     5 2   
     3     1     9 1   
     4     2     3 1   
     5     2     7 1   
     6     2    36 1   
     7     3     4 1   
     8     3    37 1   
     9     3    38 1   
    10     4     6 1   
    11     4    32 1   
    12     4    39 1   
    13     5     6 1   
    14     5     8 1   
    15     6     7 1   
    16     6    40 1   
    17     8    15 ar  
    18     8    19 ar  
    19     9    10 ar  
    20     9    14 ar  
    21    10    11 ar  
    22    10    41 1   
    23    11    12 ar  
    24    11    42 1   
    25    12    13 ar  
    26    12    21 1   
    27    13    14 ar  
    28    13    43 1   
    29    14    44 1   
    30    15    16 ar  
    31    15    45 1   
    32    16    17 ar  
    33    16    46 1   
    34    17    18 ar  
    35    17    20 1   
    36    18    19 ar  
    37    18    47 1   
    38    19    48 1   
    39    20    49 1   
    40    21    50 1   
    41    22    23 ar  
    42    22    27 ar  
    43    22    35 1   
    44    23    24 ar  
    45    23    51 1   
    46    24    25 ar  
    47    24    52 1   
    48    25    26 ar  
    49    25    28 1   
    50    26    27 ar  
    51    26    53 1   
    52    27    54 1   
    53    28    29 1   
    54    28    55 1   
    55    29    30 1   
    56    29    31 2   
    57    30    56 1   
    58    30    57 1   
    59    30    58 1   
    60    32    33 2   
    61    32    34 2   
    62    32    35 1   
@<TRIPOS>SUBSTRUCTURE
     1 7FP         1 TEMP              0 ****  ****    0 ROOT
