@<TRIPOS>MOLECULE
7FP
   58    62     1     0     0
SMALL
abcg2


@<TRIPOS>ATOM
      1 C01         20.5830    -4.8730     7.2950 ce         1 7FP      -0.063400
      2 C02         20.0630    -6.0480     8.1230 c5         1 7FP       0.178500
      3 C03         19.5140    -5.4870     9.4660 c5         1 7FP      -0.066400
      4 C04         20.8330    -4.9970    10.1150 c5         1 7FP      -0.346700
      5 C05         21.7260    -4.4940     7.9100 cf         1 7FP      -0.071400
      6 C06         21.8870    -5.4790     9.0660 c5         1 7FP       0.218500
      7 O01         21.2830    -6.6700     8.5640 os         1 7FP      -0.414000
      8 C07         22.5810    -3.3150     7.7860 ca         1 7FP      -0.079800
      9 C08         19.8670    -4.3420     6.1430 ca         1 7FP      -0.076800
     10 C09         18.4840    -4.5260     6.0180 ca         1 7FP      -0.057000
     11 C10         17.7850    -4.0460     4.9190 ca         1 7FP      -0.172000
     12 C11         18.4640    -3.3780     3.9040 ca         1 7FP       0.143100
     13 C12         19.8450    -3.2010     3.9960 ca         1 7FP      -0.172000
     14 C13         20.5300    -3.6760     5.0990 ca         1 7FP      -0.057000
     15 C14         23.9580    -3.4100     8.0220 ca         1 7FP      -0.055500
     16 C15         24.7830    -2.2970     7.9440 ca         1 7FP      -0.173000
     17 C16         24.2390    -1.0500     7.6420 ca         1 7FP       0.144100
     18 C17         22.8660    -0.9300     7.4190 ca         1 7FP      -0.173000
     19 C18         22.0550    -2.0490     7.4930 ca         1 7FP      -0.055500
     20 O02         24.9950     0.0800     7.5610 oh         1 7FP      -0.534100
     21 O03         17.8350    -2.8870     2.7980 oh         1 7FP      -0.534100
     22 C19         23.4080    -5.5490    12.9030 ca         1 7FP       0.114100
     23 C20         23.2030    -5.6920    14.2660 ca         1 7FP      -0.091000
     24 C21         24.1980    -6.2780    15.0360 ca         1 7FP      -0.120000
     25 C22         25.3830    -6.7200    14.4440 ca         1 7FP      -0.021000
     26 C23         25.5560    -6.5870    13.0660 ca         1 7FP      -0.120000
     27 C24         24.5700    -5.9900    12.2940 ca         1 7FP      -0.091000
     28 N01         26.3570    -7.3380    15.2600 ns         1 7FP      -0.170000
     29 C25         27.7070    -7.1460    15.2970 c          1 7FP       0.606100
     30 C26         28.3170    -6.0880    14.4140 c3         1 7FP      -0.173100
     31 O05         28.3960    -7.8190    16.0610 o          1 7FP      -0.590100
     32 S01         21.0760    -5.6960    11.7370 s6         1 7FP       1.338700
     33 O06         20.0430    -5.2300    12.6250 o          1 7FP      -0.531000
     34 O07         21.3520    -7.1080    11.6900 o          1 7FP      -0.531000
     35 O04         22.4440    -4.9100    12.1080 os         1 7FP      -0.468800
     36 H2          19.4220    -6.7640     7.6200 h1         1 7FP       0.106700
     37 H3          18.7980    -4.6790     9.3380 hc         1 7FP       0.070200
     38 H4          19.0460    -6.2870    10.0370 hc         1 7FP       0.070200
     39 H5          20.8700    -3.9220    10.2800 h1         1 7FP       0.122700
     40 H7          22.8870    -5.6600     9.4420 h1         1 7FP       0.104700
     41 H8          17.9350    -5.0430     6.7940 ha         1 7FP       0.119000
     42 H9          16.7130    -4.1920     4.8460 ha         1 7FP       0.124500
     43 H10         20.3700    -2.6970     3.1940 ha         1 7FP       0.124500
     44 H11         21.6020    -3.5420     5.1490 ha         1 7FP       0.119000
     45 H12         24.3980    -4.3700     8.2600 ha         1 7FP       0.119000
     46 H13         25.8480    -2.3920     8.1220 ha         1 7FP       0.125000
     47 H14         22.4480     0.0450     7.2010 ha         1 7FP       0.125000
     48 H15         20.9910    -1.9400     7.3330 ha         1 7FP       0.119000
     49 H16         25.9240    -0.1260     7.7390 ho         1 7FP       0.465000
     50 H17         16.8870    -3.0740     2.8450 ho         1 7FP       0.465000
     51 H18         22.2870    -5.3400    14.7200 ha         1 7FP       0.135500
     52 H19         24.0620    -6.3870    16.1040 ha         1 7FP       0.129000
     53 H20         26.4480    -6.9680    12.5900 ha         1 7FP       0.129000
     54 H21         24.6910    -5.8840    11.2240 ha         1 7FP       0.135500
     55 H22         26.0120    -7.9620    15.9790 hn         1 7FP       0.161000
     56 H23         29.2160    -5.7240    14.9050 hc         1 7FP       0.066033
     57 H24         28.6060    -6.5280    13.4570 hc         1 7FP       0.066033
     58 H25         27.6370    -5.2620    14.2170 hc         1 7FP       0.066033
@<TRIPOS>BOND
     1     1     2 1   
     2     1     5 2   
     3     1     9 1   
     4     2     3 1   
     5     2     7 1   
     6     2    36 1   
     7     3     4 1   
     8     3    37 1   
     9     3    38 1   
    10     4     6 1   
    11     4    32 1   
    12     4    39 1   
    13     5     6 1   
    14     5     8 1   
    15     6     7 1   
    16     6    40 1   
    17     8    15 ar  
    18     8    19 ar  
    19     9    10 ar  
    20     9    14 ar  
    21    10    11 ar  
    22    10    41 1   
    23    11    12 ar  
    24    11    42 1   
    25    12    13 ar  
    26    12    21 1   
    27    13    14 ar  
    28    13    43 1   
    29    14    44 1   
    30    15    16 ar  
    31    15    45 1   
    32    16    17 ar  
    33    16    46 1   
    34    17    18 ar  
    35    17    20 1   
    36    18    19 ar  
    37    18    47 1   
    38    19    48 1   
    39    20    49 1   
    40    21    50 1   
    41    22    23 ar  
    42    22    27 ar  
    43    22    35 1   
    44    23    24 ar  
    45    23    51 1   
    46    24    25 ar  
    47    24    52 1   
    48    25    26 ar  
    49    25    28 1   
    50    26    27 ar  
    51    26    53 1   
    52    27    54 1   
    53    28    29 1   
    54    28    55 1   
    55    29    30 1   
    56    29    31 2   
    57    30    56 1   
    58    30    57 1   
    59    30    58 1   
    60    32    33 2   
    61    32    34 2   
    62    32    35 1   
@<TRIPOS>SUBSTRUCTURE
     1 7FP         1 TEMP              0 ****  ****    0 ROOT
