@<TRIPOS>MOLECULE
7FQ
   61    65     1     0     0
SMALL
abcg2


@<TRIPOS>ATOM
      1 C01          6.4430    -0.3840    -0.1460 ca         1 7FQ      -0.206000
      2 C02          6.3330    -1.7700    -0.1650 ca         1 7FQ       0.137100
      3 C03          5.0880    -2.3500     0.0320 ca         1 7FQ      -0.149000
      4 C04          3.9530    -1.5730     0.2480 ca         1 7FQ      -0.035300
      5 C05          4.0500    -0.1750     0.2710 ca         1 7FQ      -0.100300
      6 C06          5.3120     0.3860     0.0720 ca         1 7FQ      -0.069000
      7 C07          2.6330    -2.2820     0.4190 c6         1 7FQ      -0.033100
      8 C08          1.5240    -1.3840     0.9450 c6         1 7FQ      -0.070400
      9 C09          1.5320    -0.0510     0.2120 c6         1 7FQ      -0.044700
     10 C10          2.8350     0.6910     0.5520 c6         1 7FQ      -0.005400
     11 C11          0.3580     0.8410     0.5710 c5         1 7FQ      -0.065700
     12 C12          0.3730     2.1820    -0.1760 c5         1 7FQ      -0.039000
     13 C13          1.6550     2.9240     0.1890 c6         1 7FQ      -0.061400
     14 C14          2.8980     2.0780    -0.1010 c6         1 7FQ      -0.068400
     15 C15         -1.0660     0.3340     0.3690 c5         1 7FQ      -0.063400
     16 C16         -1.9310     1.6100     0.4820 c5         1 7FQ      -0.093700
     17 C17         -0.9160     2.7970     0.3790 c5         1 7FQ       0.176300
     18 C18          0.2840     2.0210    -1.6980 c3         1 7FQ      -0.073100
     19 O01          7.3910    -2.5870    -0.3690 oh         1 7FQ      -0.536100
     20 C19         -3.0760     1.6530    -0.5330 c3         1 7FQ      -0.013100
     21 O03         -1.3370     3.8970    -0.3880 oh         1 7FQ      -0.650000
     22 H1           7.4020     0.0980    -0.3010 ha         1 7FQ       0.112000
     23 H2           4.9980    -3.4310     0.0180 ha         1 7FQ       0.125000
     24 H3           5.4320     1.4610     0.0850 ha         1 7FQ       0.110000
     25 H4           2.3310    -2.6840    -0.5550 hc         1 7FQ       0.050200
     26 H5           2.7650    -3.1500     1.0700 hc         1 7FQ       0.050200
     27 H6           0.5650    -1.8930     0.8290 hc         1 7FQ       0.043700
     28 H7           1.6570    -1.2040     2.0180 hc         1 7FQ       0.043700
     29 H8           1.5110    -0.2590    -0.8670 hc         1 7FQ       0.057700
     30 H9           2.8020     0.8590     1.6400 hc         1 7FQ       0.050700
     31 H10          0.4670     1.0830     1.6400 hc         1 7FQ       0.042700
     32 H11          1.7250     3.8750    -0.3460 hc         1 7FQ       0.043700
     33 H12          1.6320     3.1670     1.2580 hc         1 7FQ       0.043700
     34 H13          3.7690     2.6240     0.2680 hc         1 7FQ       0.042700
     35 H14          3.0460     1.9680    -1.1790 hc         1 7FQ       0.042700
     36 H15         -1.1720    -0.1250    -0.6190 hc         1 7FQ       0.048200
     37 H16         -1.3530    -0.4270     1.0960 hc         1 7FQ       0.048200
     38 H17         -2.3840     1.6410     1.4780 hc         1 7FQ       0.045700
     39 H18         -0.7000     3.1280     1.4060 h1         1 7FQ       0.025700
     40 H19         -0.6180     1.5040    -2.0250 hc         1 7FQ       0.036700
     41 H20          0.2880     2.9970    -2.1860 hc         1 7FQ       0.036700
     42 H21          1.1300     1.4640    -2.1000 hc         1 7FQ       0.036700
     43 H22          8.1950    -2.0680    -0.4750 ho         1 7FQ       0.463000
     44 H23         -3.6040     2.6070    -0.4590 hc         1 7FQ       0.050200
     45 H24         -2.6790     1.5970    -1.5490 hc         1 7FQ       0.050200
     46 H26         -2.0530     4.3380     0.0790 ho         1 7FQ       0.441000
     47 C1          -4.0590     0.5360    -0.3150 ca         1 7FQ      -0.116300
     48 C2          -4.9900     0.5990     0.7240 ca         1 7FQ      -0.073000
     49 C3          -5.8870    -0.4250     0.9580 ca         1 7FQ      -0.169000
     50 C4          -5.8800    -1.5640     0.1480 ca         1 7FQ       0.136100
     51 C5          -4.9610    -1.6480    -0.8920 ca         1 7FQ      -0.169000
     52 C6          -4.0670    -0.6020    -1.1090 ca         1 7FQ      -0.073000
     53 O1          -6.7920    -2.5140     0.4450 os         1 7FQ      -0.342100
     54 C8          -6.8540    -3.6640    -0.3700 c3         1 7FQ       0.148900
     55 H25         -5.0180     1.4760     1.3630 ha         1 7FQ       0.110000
     56 H27         -6.6040    -0.3510     1.7660 ha         1 7FQ       0.121000
     57 H28         -4.9230    -2.5110    -1.5430 ha         1 7FQ       0.121000
     58 H29         -3.3640    -0.6870    -1.9300 ha         1 7FQ       0.110000
     59 H30         -5.9260    -4.2410    -0.3390 h1         1 7FQ       0.039700
     60 H31         -7.6600    -4.2800     0.0220 h1         1 7FQ       0.039700
     61 H32         -7.0770    -3.4170    -1.4120 h1         1 7FQ       0.039700
@<TRIPOS>BOND
     1     1     2 ar  
     2     1     6 ar  
     3     1    22 1   
     4     2     3 ar  
     5     2    19 1   
     6     3     4 ar  
     7     3    23 1   
     8     4     5 ar  
     9     4     7 1   
    10     5     6 ar  
    11     5    10 1   
    12     6    24 1   
    13     7     8 1   
    14     7    25 1   
    15     7    26 1   
    16     8     9 1   
    17     8    27 1   
    18     8    28 1   
    19     9    10 1   
    20     9    11 1   
    21     9    29 1   
    22    10    14 1   
    23    10    30 1   
    24    11    12 1   
    25    11    15 1   
    26    11    31 1   
    27    12    13 1   
    28    12    17 1   
    29    12    18 1   
    30    13    14 1   
    31    13    32 1   
    32    13    33 1   
    33    14    34 1   
    34    14    35 1   
    35    15    16 1   
    36    15    36 1   
    37    15    37 1   
    38    16    17 1   
    39    16    20 1   
    40    16    38 1   
    41    17    21 1   
    42    17    39 1   
    43    18    40 1   
    44    18    41 1   
    45    18    42 1   
    46    19    43 1   
    47    20    44 1   
    48    20    45 1   
    49    20    47 1   
    50    21    46 1   
    51    47    48 ar  
    52    47    52 ar  
    53    48    49 ar  
    54    48    55 1   
    55    49    50 ar  
    56    49    56 1   
    57    50    51 ar  
    58    50    53 1   
    59    51    52 ar  
    60    51    57 1   
    61    52    58 1   
    62    53    54 1   
    63    54    59 1   
    64    54    60 1   
    65    54    61 1   
@<TRIPOS>SUBSTRUCTURE
     1 7FQ         1 TEMP              0 ****  ****    0 ROOT
