@<TRIPOS>MOLECULE
7FQ
   61    65     1     0     0
SMALL
No Charge or Current Charge


@<TRIPOS>ATOM
      1 C01          6.5110    -0.5180    -0.1150 ca         1 7FQ      -0.206000
      2 C02          6.3480    -1.9070    -0.0820 ca         1 7FQ       0.137100
      3 C03          5.0800    -2.4550     0.1460 ca         1 7FQ      -0.149000
      4 C04          3.9600    -1.6220     0.3370 ca         1 7FQ      -0.035300
      5 C05          4.1090    -0.2100     0.2790 ca         1 7FQ      -0.100300
      6 C06          5.4020     0.3250     0.0690 ca         1 7FQ      -0.069000
      7 C07          2.6020    -2.2920     0.5810 c6         1 7FQ      -0.033100
      8 C08          1.5030    -1.3300     1.0750 c6         1 7FQ      -0.070400
      9 C09          1.5360    -0.0220     0.2530 c6         1 7FQ      -0.044700
     10 C10          2.8890     0.7210     0.5090 c6         1 7FQ      -0.005400
     11 C11          0.3500     0.9250     0.5890 c5         1 7FQ      -0.065700
     12 C12          0.3570     2.2260    -0.2700 c5         1 7FQ      -0.039000
     13 C13          1.6960     2.9760    -0.0100 c6         1 7FQ      -0.061400
     14 C14          2.9380     2.0740    -0.2840 c6         1 7FQ      -0.068400
     15 C15         -1.0990     0.4170     0.3710 c5         1 7FQ      -0.063400
     16 C16         -1.9480     1.7310     0.5300 c5         1 7FQ      -0.093700
     17 C17         -0.8970     2.9070     0.3830 c5         1 7FQ       0.176300
     18 C18          0.2070     2.0230    -1.8230 c3         1 7FQ      -0.073100
     19 O01          7.4200    -2.7270    -0.2610 oh         1 7FQ      -0.536100
     20 C19         -3.2060     1.7770    -0.3830 c3         1 7FQ      -0.013100
     21 O03         -1.3820     4.0310    -0.3550 oh         1 7FQ      -0.650000
     22 H1           7.4930    -0.0810    -0.2800 ha         1 7FQ       0.112000
     23 H2           4.9650    -3.5350     0.1770 ha         1 7FQ       0.125000
     24 H3           5.5700     1.3970     0.0540 ha         1 7FQ       0.110000
     25 H4           2.2720    -2.7590    -0.3570 hc         1 7FQ       0.050200
     26 H5           2.7140    -3.1130     1.3040 hc         1 7FQ       0.050200
     27 H6           0.5270    -1.8250     0.9880 hc         1 7FQ       0.043700
     28 H7           1.6510    -1.1080     2.1410 hc         1 7FQ       0.043700
     29 H8           1.4750    -0.2950    -0.8090 hc         1 7FQ       0.057700
     30 H9           2.9160     0.9890     1.5750 hc         1 7FQ       0.050700
     31 H10          0.4860     1.1650     1.6530 hc         1 7FQ       0.042700
     32 H11          1.7500     3.8880    -0.6210 hc         1 7FQ       0.043700
     33 H12          1.7310     3.3130     1.0360 hc         1 7FQ       0.043700
     34 H13          3.8240     2.6520     0.0020 hc         1 7FQ       0.042700
     35 H14          3.0410     1.8740    -1.3590 hc         1 7FQ       0.042700
     36 H15         -1.2240    -0.0500    -0.6120 hc         1 7FQ       0.048200
     37 H16         -1.3880    -0.3380     1.1100 hc         1 7FQ       0.048200
     38 H17         -2.3410     1.7690     1.5530 hc         1 7FQ       0.045700
     39 H18         -0.6250     3.2480     1.3930 h1         1 7FQ       0.025700
     40 H19         -0.7440     1.5650    -2.1070 hc         1 7FQ       0.036700
     41 H20          0.2550     2.9850    -2.3480 hc         1 7FQ       0.036700
     42 H21          0.9960     1.3940    -2.2450 hc         1 7FQ       0.036700
     43 H22          8.2140    -2.1680    -0.4040 ho         1 7FQ       0.463000
     44 H23         -3.7770     2.6900    -0.1710 hc         1 7FQ       0.050200
     45 H24         -2.9070     1.8610    -1.4330 hc         1 7FQ       0.050200
     46 H26         -2.0950     4.4350     0.1850 ho         1 7FQ       0.441000
     47 C1          -4.1280     0.5750    -0.2050 ca         1 7FQ      -0.116300
     48 C2          -4.9240     0.4570     0.9500 ca         1 7FQ      -0.073000
     49 C3          -5.7670    -0.6540     1.1190 ca         1 7FQ      -0.169000
     50 C4          -5.8250    -1.6590     0.1400 ca         1 7FQ       0.136100
     51 C5          -5.0280    -1.5450    -1.0200 ca         1 7FQ      -0.169000
     52 C6          -4.1850    -0.4320    -1.1890 ca         1 7FQ      -0.073000
     53 O1          -6.6700    -2.7270     0.3610 os         1 7FQ      -0.342100
     54 C8          -6.8000    -3.8090    -0.5790 c3         1 7FQ       0.148900
     55 H25         -4.8890     1.2270     1.7180 ha         1 7FQ       0.110000
     56 H27         -6.3780    -0.7390     2.0130 ha         1 7FQ       0.121000
     57 H28         -5.0480    -2.3040    -1.7970 ha         1 7FQ       0.121000
     58 H29         -3.5720    -0.3550    -2.0840 ha         1 7FQ       0.110000
     59 H30         -5.8380    -4.3160    -0.7270 h1         1 7FQ       0.039700
     60 H31         -7.5210    -4.5490    -0.2090 h1         1 7FQ       0.039700
     61 H32         -7.1590    -3.4410    -1.5500 h1         1 7FQ       0.039700
@<TRIPOS>BOND
     1     1     2 ar  
     2     1     6 ar  
     3     1    22 1   
     4     2     3 ar  
     5     2    19 1   
     6     3     4 ar  
     7     3    23 1   
     8     4     5 ar  
     9     4     7 1   
    10     5     6 ar  
    11     5    10 1   
    12     6    24 1   
    13     7     8 1   
    14     7    25 1   
    15     7    26 1   
    16     8     9 1   
    17     8    27 1   
    18     8    28 1   
    19     9    10 1   
    20     9    11 1   
    21     9    29 1   
    22    10    14 1   
    23    10    30 1   
    24    11    12 1   
    25    11    15 1   
    26    11    31 1   
    27    12    13 1   
    28    12    17 1   
    29    12    18 1   
    30    13    14 1   
    31    13    32 1   
    32    13    33 1   
    33    14    34 1   
    34    14    35 1   
    35    15    16 1   
    36    15    36 1   
    37    15    37 1   
    38    16    17 1   
    39    16    20 1   
    40    16    38 1   
    41    17    21 1   
    42    17    39 1   
    43    18    40 1   
    44    18    41 1   
    45    18    42 1   
    46    19    43 1   
    47    20    44 1   
    48    20    45 1   
    49    20    47 1   
    50    21    46 1   
    51    47    48 ar  
    52    47    52 ar  
    53    48    49 ar  
    54    48    55 1   
    55    49    50 ar  
    56    49    56 1   
    57    50    51 ar  
    58    50    53 1   
    59    51    52 ar  
    60    51    57 1   
    61    52    58 1   
    62    53    54 1   
    63    54    59 1   
    64    54    60 1   
    65    54    61 1   
@<TRIPOS>SUBSTRUCTURE
     1 7FQ         1 TEMP              0 ****  ****    0 ROOT
