@<TRIPOS>MOLECULE
7FR
   62    66     1     0     0
SMALL
No Charge or Current Charge


@<TRIPOS>ATOM
      1 C01          4.6570    -2.8150    -0.4310 ca         1 7FR      -0.206000
      2 C02          5.8450    -2.1160    -0.1930 ca         1 7FR       0.138100
      3 C03          5.8260    -0.7200    -0.0940 ca         1 7FR      -0.149000
      4 C04          4.6200    -0.0060    -0.2270 ca         1 7FR      -0.035300
      5 C05          3.4020    -0.7060    -0.4440 ca         1 7FR      -0.101300
      6 C06          3.4450    -2.1160    -0.5610 ca         1 7FR      -0.069000
      7 C07          4.6730     1.5220    -0.1030 c6         1 7FR      -0.033100
      8 C08          3.3780     2.2390    -0.5370 c6         1 7FR      -0.069400
      9 C09          2.1460     1.4960     0.0240 c6         1 7FR      -0.047700
     10 C10          2.0690     0.0690    -0.6150 c6         1 7FR      -0.005400
     11 C11          0.8140     2.2450    -0.2520 c5         1 7FR      -0.059700
     12 C12         -0.4410     1.5320     0.3560 c5         1 7FR      -0.137300
     13 C13         -0.5240     0.1190    -0.3030 c6         1 7FR      -0.060400
     14 C14          0.7940    -0.6960    -0.1190 c6         1 7FR      -0.068400
     15 C15          0.6320     3.7050     0.2420 c5         1 7FR      -0.072400
     16 C16         -0.8720     3.9180    -0.1180 c5         1 7FR      -0.132700
     17 C17         -1.5330     2.5470    -0.0300 c2         1 7FR       0.469300
     18 O01          7.0220    -2.7900    -0.0660 oh         1 7FR      -0.535100
     19 N01         -2.8190     2.3770    -0.1870 ne         1 7FR      -0.587100
     20 C27         -0.4290     1.3560     1.9140 c3         1 7FR      -0.080100
     21 H1           4.6620    -3.8980    -0.5200 ha         1 7FR       0.112000
     22 H2           6.7560    -0.1860     0.0850 ha         1 7FR       0.125000
     23 H3           2.5450    -2.6900    -0.7610 ha         1 7FR       0.110000
     24 H4           4.8870     1.7770     0.9440 hc         1 7FR       0.051200
     25 H5           5.5170     1.9150    -0.6880 hc         1 7FR       0.051200
     26 H6           3.4070     3.2770    -0.1810 hc         1 7FR       0.044200
     27 H7           3.3250     2.2830    -1.6340 hc         1 7FR       0.044200
     28 H8           2.2830     1.3980     1.1090 hc         1 7FR       0.055700
     29 H9           1.9420     0.2040    -1.6980 hc         1 7FR       0.052700
     30 H10          0.7390     2.2520    -1.3480 hc         1 7FR       0.049700
     31 H11         -1.3560    -0.4610     0.1180 hc         1 7FR       0.051200
     32 H12         -0.7340     0.2250    -1.3770 hc         1 7FR       0.051200
     33 H13          0.6720    -1.6320    -0.6770 hc         1 7FR       0.043200
     34 H14          0.9200    -0.9860     0.9330 hc         1 7FR       0.043200
     35 H15          0.8280     3.8130     1.3150 hc         1 7FR       0.048700
     36 H16          1.2820     4.4160    -0.2800 hc         1 7FR       0.048700
     37 H17         -1.3510     4.6350     0.5580 hc         1 7FR       0.066700
     38 H18         -0.9820     4.3140    -1.1330 hc         1 7FR       0.066700
     39 H19          6.8390    -3.7490    -0.1650 ho         1 7FR       0.463000
     40 H21         -1.2970     0.7800     2.2510 hc         1 7FR       0.038700
     41 H22          0.4580     0.8280     2.2780 hc         1 7FR       0.038700
     42 H23         -0.4710     2.3170     2.4390 hc         1 7FR       0.038700
     43 C1          -3.4740     1.1430    -0.0540 ca         1 7FR       0.150400
     44 C2          -3.8930     0.6930     1.2090 ca         1 7FR      -0.127500
     45 C3          -4.5420    -0.5470     1.3400 ca         1 7FR      -0.094000
     46 C4          -4.7890    -1.3470     0.2060 ca         1 7FR      -0.090300
     47 C5          -4.3860    -0.8800    -1.0630 ca         1 7FR      -0.094000
     48 C6          -3.7380     0.3610    -1.1910 ca         1 7FR      -0.127500
     49 C7          -5.4880    -2.7000     0.3590 c3         1 7FR      -0.013400
     50 C8          -6.8380    -2.7290    -0.3920 c3         1 7FR      -0.084100
     51 C9          -4.5670    -3.8620    -0.0750 c3         1 7FR      -0.084100
     52 H20         -3.7110     1.3030     2.0900 ha         1 7FR       0.118000
     53 H24         -4.8510    -0.8840     2.3270 ha         1 7FR       0.110000
     54 H25         -4.5710    -1.4770    -1.9520 ha         1 7FR       0.110000
     55 H26         -3.4290     0.7100    -2.1720 ha         1 7FR       0.118000
     56 H27         -5.7170    -2.8610     1.4200 hc         1 7FR       0.047700
     57 H28         -7.3630    -3.6740    -0.2050 hc         1 7FR       0.034200
     58 H29         -7.4830    -1.9090    -0.0540 hc         1 7FR       0.034200
     59 H30         -6.6930    -2.6280    -1.4740 hc         1 7FR       0.034200
     60 H31         -3.6250    -3.8340     0.4860 hc         1 7FR       0.034200
     61 H32         -5.0490    -4.8280     0.1160 hc         1 7FR       0.034200
     62 H33         -4.3310    -3.8030    -1.1440 hc         1 7FR       0.034200
@<TRIPOS>BOND
     1     1     2 ar  
     2     1     6 ar  
     3     1    21 1   
     4     2     3 ar  
     5     2    18 1   
     6     3     4 ar  
     7     3    22 1   
     8     4     5 ar  
     9     4     7 1   
    10     5     6 ar  
    11     5    10 1   
    12     6    23 1   
    13     7     8 1   
    14     7    24 1   
    15     7    25 1   
    16     8     9 1   
    17     8    26 1   
    18     8    27 1   
    19     9    10 1   
    20     9    11 1   
    21     9    28 1   
    22    10    14 1   
    23    10    29 1   
    24    11    12 1   
    25    11    15 1   
    26    11    30 1   
    27    12    13 1   
    28    12    17 1   
    29    12    20 1   
    30    13    14 1   
    31    13    31 1   
    32    13    32 1   
    33    14    33 1   
    34    14    34 1   
    35    15    16 1   
    36    15    35 1   
    37    15    36 1   
    38    16    17 1   
    39    16    37 1   
    40    16    38 1   
    41    17    19 2   
    42    18    39 1   
    43    19    43 1   
    44    20    40 1   
    45    20    41 1   
    46    20    42 1   
    47    43    44 ar  
    48    43    48 ar  
    49    44    45 ar  
    50    44    52 1   
    51    45    46 ar  
    52    45    53 1   
    53    46    47 ar  
    54    46    49 1   
    55    47    48 ar  
    56    47    54 1   
    57    48    55 1   
    58    49    50 1   
    59    49    51 1   
    60    49    56 1   
    61    50    57 1   
    62    50    58 1   
    63    50    59 1   
    64    51    60 1   
    65    51    61 1   
    66    51    62 1   
@<TRIPOS>SUBSTRUCTURE
     1 7FR         1 TEMP              0 ****  ****    0 ROOT
