@<TRIPOS>MOLECULE
7FR
   62    66     1     0     0
SMALL
abcg2


@<TRIPOS>ATOM
      1 C01          4.5930    -2.7850    -0.3380 ca         1 7FR      -0.206000
      2 C02          5.7880    -2.0820    -0.2330 ca         1 7FR       0.138100
      3 C03          5.7530    -0.6950    -0.2000 ca         1 7FR      -0.149000
      4 C04          4.5490     0.0010    -0.2670 ca         1 7FR      -0.035300
      5 C05          3.3380    -0.6970    -0.3680 ca         1 7FR      -0.101300
      6 C06          3.3970    -2.0900    -0.4060 ca         1 7FR      -0.069000
      7 C07          4.5950     1.5070    -0.2080 c6         1 7FR      -0.033100
      8 C08          3.3020     2.1650    -0.6610 c6         1 7FR      -0.069400
      9 C09          2.1160     1.4830     0.0040 c6         1 7FR      -0.047700
     10 C10          2.0150     0.0350    -0.4960 c6         1 7FR      -0.005400
     11 C11          0.7930     2.1760    -0.2620 c5         1 7FR      -0.059700
     12 C12         -0.3940     1.4980     0.4530 c5         1 7FR      -0.137300
     13 C13         -0.4940     0.0530    -0.0290 c6         1 7FR      -0.060400
     14 C14          0.8340    -0.6860     0.1630 c6         1 7FR      -0.068400
     15 C15          0.6360     3.6550     0.0780 c5         1 7FR      -0.072400
     16 C16         -0.8830     3.8590    -0.0140 c5         1 7FR      -0.132700
     17 C17         -1.5020     2.4760     0.0990 c2         1 7FR       0.469300
     18 O01          6.9930    -2.6890    -0.1650 oh         1 7FR      -0.535100
     19 N01         -2.7390     2.3140    -0.1060 ne         1 7FR      -0.587100
     20 C27         -0.2680     1.5530     1.9890 c3         1 7FR      -0.080100
     21 H1           4.5900    -3.8690    -0.3710 ha         1 7FR       0.112000
     22 H2           6.6830    -0.1410    -0.1220 ha         1 7FR       0.125000
     23 H3           2.4860    -2.6670    -0.4970 ha         1 7FR       0.110000
     24 H4           4.8060     1.8080     0.8240 hc         1 7FR       0.051200
     25 H5           5.4400     1.8700    -0.8000 hc         1 7FR       0.051200
     26 H6           3.3320     3.2290    -0.4160 hc         1 7FR       0.044200
     27 H7           3.1990     2.0960    -1.7500 hc         1 7FR       0.044200
     28 H8           2.3040     1.4720     1.0860 hc         1 7FR       0.055700
     29 H9           1.7860     0.1010    -1.5710 hc         1 7FR       0.052700
     30 H10          0.5960     2.0800    -1.3410 hc         1 7FR       0.049700
     31 H11         -1.2820    -0.4900     0.4960 hc         1 7FR       0.051200
     32 H12         -0.7610     0.0400    -1.0900 hc         1 7FR       0.051200
     33 H13          0.7130    -1.6870    -0.2540 hc         1 7FR       0.043200
     34 H14          1.0420    -0.8270     1.2280 hc         1 7FR       0.043200
     35 H15          1.0100     3.8690     1.0820 hc         1 7FR       0.048700
     36 H16          1.1770     4.3040    -0.6100 hc         1 7FR       0.048700
     37 H17         -1.2780     4.5210     0.7590 hc         1 7FR       0.066700
     38 H18         -1.1680     4.2950    -0.9740 hc         1 7FR       0.066700
     39 H19          6.8860    -3.6460    -0.2050 ho         1 7FR       0.463000
     40 H21         -1.1120     1.0370     2.4490 hc         1 7FR       0.038700
     41 H22          0.6420     1.0730     2.3440 hc         1 7FR       0.038700
     42 H23         -0.2620     2.5740     2.3720 hc         1 7FR       0.038700
     43 C1          -3.3820     1.0770    -0.0080 ca         1 7FR       0.150400
     44 C2          -3.7630     0.5470     1.2220 ca         1 7FR      -0.127500
     45 C3          -4.4500    -0.6590     1.2840 ca         1 7FR      -0.094000
     46 C4          -4.7870    -1.3680     0.1370 ca         1 7FR      -0.090300
     47 C5          -4.4250    -0.8120    -1.0910 ca         1 7FR      -0.094000
     48 C6          -3.7470     0.3920    -1.1680 ca         1 7FR      -0.127500
     49 C7          -5.5070    -2.6930     0.2190 c3         1 7FR      -0.013400
     50 C8          -6.8170    -2.6810    -0.5660 c3         1 7FR      -0.084100
     51 C9          -4.6030    -3.8390    -0.2400 c3         1 7FR      -0.084100
     52 H20         -3.5180     1.0770     2.1340 ha         1 7FR       0.118000
     53 H24         -4.7220    -1.0570     2.2550 ha         1 7FR       0.110000
     54 H25         -4.6750    -1.3240    -2.0140 ha         1 7FR       0.110000
     55 H26         -3.4800     0.8020    -2.1340 ha         1 7FR       0.118000
     56 H27         -5.7510    -2.8680     1.2720 hc         1 7FR       0.047700
     57 H28         -7.3450    -3.6300    -0.4530 hc         1 7FR       0.034200
     58 H29         -7.4810    -1.8880    -0.2200 hc         1 7FR       0.034200
     59 H30         -6.6430    -2.5280    -1.6330 hc         1 7FR       0.034200
     60 H31         -3.6910    -3.8840     0.3570 hc         1 7FR       0.034200
     61 H32         -5.1140    -4.7980    -0.1450 hc         1 7FR       0.034200
     62 H33         -4.3110    -3.7210    -1.2850 hc         1 7FR       0.034200
@<TRIPOS>BOND
     1     1     2 ar  
     2     1     6 ar  
     3     1    21 1   
     4     2     3 ar  
     5     2    18 1   
     6     3     4 ar  
     7     3    22 1   
     8     4     5 ar  
     9     4     7 1   
    10     5     6 ar  
    11     5    10 1   
    12     6    23 1   
    13     7     8 1   
    14     7    24 1   
    15     7    25 1   
    16     8     9 1   
    17     8    26 1   
    18     8    27 1   
    19     9    10 1   
    20     9    11 1   
    21     9    28 1   
    22    10    14 1   
    23    10    29 1   
    24    11    12 1   
    25    11    15 1   
    26    11    30 1   
    27    12    13 1   
    28    12    17 1   
    29    12    20 1   
    30    13    14 1   
    31    13    31 1   
    32    13    32 1   
    33    14    33 1   
    34    14    34 1   
    35    15    16 1   
    36    15    35 1   
    37    15    36 1   
    38    16    17 1   
    39    16    37 1   
    40    16    38 1   
    41    17    19 2   
    42    18    39 1   
    43    19    43 1   
    44    20    40 1   
    45    20    41 1   
    46    20    42 1   
    47    43    44 ar  
    48    43    48 ar  
    49    44    45 ar  
    50    44    52 1   
    51    45    46 ar  
    52    45    53 1   
    53    46    47 ar  
    54    46    49 1   
    55    47    48 ar  
    56    47    54 1   
    57    48    55 1   
    58    49    50 1   
    59    49    51 1   
    60    49    56 1   
    61    50    57 1   
    62    50    58 1   
    63    50    59 1   
    64    51    60 1   
    65    51    61 1   
    66    51    62 1   
@<TRIPOS>SUBSTRUCTURE
     1 7FR         1 TEMP              0 ****  ****    0 ROOT
