@<TRIPOS>MOLECULE
7FS
   64    68     1     0     0
SMALL
bcc


@<TRIPOS>ATOM
      1 C01          6.3940    -1.7870    -0.6880 ca         1 7FS      -0.224000
      2 C02          7.1830    -0.6460    -0.5930 ca         1 7FS       0.138100
      3 C03          6.5660     0.5900    -0.4520 ca         1 7FS      -0.167000
      4 C04          5.1800     0.7060    -0.4040 ca         1 7FS      -0.035300
      5 C05          4.3740    -0.4370    -0.4920 ca         1 7FS      -0.100300
      6 C06          5.0140    -1.6670    -0.6390 ca         1 7FS      -0.087000
      7 C07          4.5870     2.0830    -0.2390 c6         1 7FS      -0.033100
      8 C08          3.1100     2.1450    -0.5910 c6         1 7FS      -0.069400
      9 C09          2.3720     0.9980     0.0830 c6         1 7FS      -0.046700
     10 C10          2.8590    -0.3370    -0.5040 c6         1 7FS      -0.005400
     11 C11          0.8670     1.0640    -0.0860 c5         1 7FS      -0.063700
     12 C12          0.1300    -0.0790     0.6250 c5         1 7FS      -0.046000
     13 C13          0.6200    -1.4080     0.0630 c6         1 7FS      -0.060400
     14 C14          2.1450    -1.5280     0.1500 c6         1 7FS      -0.069400
     15 C15          0.1020     2.3220     0.3310 c5         1 7FS      -0.067400
     16 C16         -1.3570     1.8350     0.4830 c5         1 7FS      -0.110400
     17 C17         -1.3140     0.3000     0.2610 c5         1 7FS       0.212500
     18 O01          8.5330    -0.6830    -0.6380 oh         1 7FS      -0.496100
     19 N01         -2.3210    -0.4720     0.9450 nu         1 7FS      -0.735600
     20 C18          0.3180    -0.0500     2.1460 c3         1 7FS      -0.085100
     21 H1           6.8470    -2.7650    -0.8080 ha         1 7FS       0.130000
     22 H2           7.1790     1.4820    -0.3880 ha         1 7FS       0.143000
     23 H3           4.4270    -2.5720    -0.7270 ha         1 7FS       0.128000
     24 H4           4.7180     2.3950     0.8030 hc         1 7FS       0.050700
     25 H5           5.1560     2.8000    -0.8370 hc         1 7FS       0.050700
     26 H6           2.7030     3.1080    -0.2750 hc         1 7FS       0.044200
     27 H7           2.9710     2.0830    -1.6760 hc         1 7FS       0.044200
     28 H8           2.6260     1.0310     1.1520 hc         1 7FS       0.055700
     29 H9           2.5480    -0.3300    -1.5600 hc         1 7FS       0.051700
     30 H10          0.6760     0.9220    -1.1620 hc         1 7FS       0.045700
     31 H11          0.1510    -2.2480     0.5830 hc         1 7FS       0.046700
     32 H12          0.3180    -1.4860    -0.9880 hc         1 7FS       0.046700
     33 H13          2.4390    -2.4600    -0.3360 hc         1 7FS       0.042700
     34 H14          2.4650    -1.6190     1.1930 hc         1 7FS       0.042700
     35 H15          0.4840     2.7230     1.2740 hc         1 7FS       0.044200
     36 H16          0.1960     3.1190    -0.4080 hc         1 7FS       0.044200
     37 H17         -1.7470     2.0540     1.4800 hc         1 7FS       0.047700
     38 H18         -2.0290     2.3180    -0.2280 hc         1 7FS       0.047700
     39 H19         -1.4210     0.1000    -0.8100 h1         1 7FS       0.062700
     40 H20          8.8360    -1.5880    -0.7670 ho         1 7FS       0.424000
     41 H21         -2.1900    -0.5270     1.9440 hn         1 7FS       0.402800
     42 H24         -0.0250     0.8810     2.5990 hc         1 7FS       0.035367
     43 H25         -0.2300    -0.8690     2.6170 hc         1 7FS       0.035367
     44 H26          1.3590    -0.1790     2.4400 hc         1 7FS       0.035367
     45 C1          -3.6530    -0.4170     0.5820 ca         1 7FS       0.164600
     46 C2          -4.6320    -0.8610     1.4810 ca         1 7FS      -0.198000
     47 C3          -5.9730    -0.8610     1.1350 ca         1 7FS      -0.085000
     48 C4          -6.4120    -0.4240    -0.1120 ca         1 7FS      -0.121300
     49 C5          -5.4350     0.0160    -1.0020 ca         1 7FS      -0.085000
     50 C6          -4.0870     0.0270    -0.6740 ca         1 7FS      -0.198000
     51 C7          -7.8790    -0.4150    -0.4730 c3         1 7FS      -0.007400
     52 C8          -8.3920     1.0040    -0.7170 c3         1 7FS      -0.084100
     53 C9          -8.1730    -1.3090    -1.6780 c3         1 7FS      -0.084100
     54 H22         -4.3330    -1.2110     2.4630 ha         1 7FS       0.127500
     55 H23         -6.6990    -1.2080     1.8630 ha         1 7FS       0.124500
     56 H27         -5.7220     0.3740    -1.9840 ha         1 7FS       0.124500
     57 H28         -3.3780     0.3890    -1.4070 ha         1 7FS       0.127500
     58 H29         -8.4270    -0.8230     0.3830 hc         1 7FS       0.045700
     59 H30         -7.8890     1.4660    -1.5700 hc         1 7FS       0.033033
     60 H31         -9.4620     0.9990    -0.9320 hc         1 7FS       0.033033
     61 H32         -8.2280     1.6430     0.1520 hc         1 7FS       0.033033
     62 H33         -7.8380    -2.3320    -1.5070 hc         1 7FS       0.033033
     63 H34         -9.2440    -1.3360    -1.8890 hc         1 7FS       0.033033
     64 H35         -7.6730    -0.9400    -2.5770 hc         1 7FS       0.033033
@<TRIPOS>BOND
     1     1     2 ar  
     2     1     6 ar  
     3     1    21 1   
     4     2     3 ar  
     5     2    18 1   
     6     3     4 ar  
     7     3    22 1   
     8     4     5 ar  
     9     4     7 1   
    10     5     6 ar  
    11     5    10 1   
    12     6    23 1   
    13     7     8 1   
    14     7    24 1   
    15     7    25 1   
    16     8     9 1   
    17     8    26 1   
    18     8    27 1   
    19     9    10 1   
    20     9    11 1   
    21     9    28 1   
    22    10    14 1   
    23    10    29 1   
    24    11    12 1   
    25    11    15 1   
    26    11    30 1   
    27    12    13 1   
    28    12    17 1   
    29    12    20 1   
    30    13    14 1   
    31    13    31 1   
    32    13    32 1   
    33    14    33 1   
    34    14    34 1   
    35    15    16 1   
    36    15    35 1   
    37    15    36 1   
    38    16    17 1   
    39    16    37 1   
    40    16    38 1   
    41    17    19 1   
    42    17    39 1   
    43    18    40 1   
    44    19    41 1   
    45    19    45 1   
    46    20    42 1   
    47    20    43 1   
    48    20    44 1   
    49    45    46 ar  
    50    45    50 ar  
    51    46    47 ar  
    52    46    54 1   
    53    47    48 ar  
    54    47    55 1   
    55    48    49 ar  
    56    48    51 1   
    57    49    50 ar  
    58    49    56 1   
    59    50    57 1   
    60    51    52 1   
    61    51    53 1   
    62    51    58 1   
    63    52    59 1   
    64    52    60 1   
    65    52    61 1   
    66    53    62 1   
    67    53    63 1   
    68    53    64 1   
@<TRIPOS>SUBSTRUCTURE
     1 7FS         1 TEMP              0 ****  ****    0 ROOT
