@<TRIPOS>MOLECULE
7FS
   64    68     1     0     0
SMALL
No Charge or Current Charge


@<TRIPOS>ATOM
      1 C01          6.5990    -1.3840    -0.9790 ca         1 7FS      -0.206000
      2 C02          7.2800    -0.1960    -0.6920 ca         1 7FS       0.138100
      3 C03          6.5600     0.9640    -0.3880 ca         1 7FS      -0.149000
      4 C04          5.1520     0.9510    -0.3610 ca         1 7FS      -0.035300
      5 C05          4.4490    -0.2560    -0.6260 ca         1 7FS      -0.100300
      6 C06          5.1950    -1.4140    -0.9520 ca         1 7FS      -0.069000
      7 C07          4.4290     2.2600    -0.0190 c6         1 7FS      -0.033100
      8 C08          2.9130     2.2370    -0.3000 c6         1 7FS      -0.069400
      9 C09          2.3020     0.9100     0.2010 c6         1 7FS      -0.046700
     10 C10          2.8980    -0.2820    -0.6220 c6         1 7FS      -0.005400
     11 C11          0.7510     0.8880     0.0980 c5         1 7FS      -0.063700
     12 C12          0.1300    -0.4360     0.6360 c5         1 7FS      -0.046000
     13 C13          0.7050    -1.6180    -0.1930 c6         1 7FS      -0.060400
     14 C14          2.2650    -1.6440    -0.1690 c6         1 7FS      -0.069400
     15 C15         -0.0690     1.9770     0.8520 c5         1 7FS      -0.067400
     16 C16         -1.5220     1.3830     0.8970 c5         1 7FS      -0.110400
     17 C17         -1.3890    -0.0570     0.2830 c5         1 7FS       0.212500
     18 O01          8.6420    -0.1640    -0.7170 oh         1 7FS      -0.535100
     19 N01         -2.4030    -0.9090     1.0390 nu         1 7FS      -0.929200
     20 C18          0.3680    -0.7280     2.1630 c3         1 7FS      -0.085100
     21 H1           7.1480    -2.2890    -1.2280 ha         1 7FS       0.112000
     22 H2           7.0980     1.8840    -0.1730 ha         1 7FS       0.125000
     23 H3           4.7010    -2.3490    -1.1970 ha         1 7FS       0.110000
     24 H4           4.5910     2.4770     1.0460 hc         1 7FS       0.050700
     25 H5           4.8850     3.0950    -0.5700 hc         1 7FS       0.050700
     26 H6           2.4420     3.0970     0.1940 hc         1 7FS       0.044200
     27 H7           2.7300     2.3530    -1.3770 hc         1 7FS       0.044200
     28 H8           2.5830     0.7890     1.2550 hc         1 7FS       0.055700
     29 H9           2.5960    -0.1360    -1.6690 hc         1 7FS       0.051700
     30 H10          0.5550     0.9900    -0.9780 hc         1 7FS       0.045700
     31 H11          0.3050    -2.5730     0.1750 hc         1 7FS       0.046700
     32 H12          0.3680    -1.5330    -1.2360 hc         1 7FS       0.046700
     33 H13          2.5830    -2.4530    -0.8370 hc         1 7FS       0.042700
     34 H14          2.6310    -1.9130     0.8300 hc         1 7FS       0.042700
     35 H15          0.3230     2.1550     1.8600 hc         1 7FS       0.044200
     36 H16         -0.0400     2.9400     0.3310 hc         1 7FS       0.044200
     37 H17         -1.8910     1.3780     1.9300 hc         1 7FS       0.047700
     38 H18         -2.2270     1.9910     0.3180 hc         1 7FS       0.047700
     39 H19         -1.5430    -0.0470    -0.8060 h1         1 7FS       0.062700
     40 H20          8.9660    -1.0610    -0.9490 ho         1 7FS       0.463000
     41 H21         -2.3060    -0.9560     2.0510 hn         1 7FS       0.458000
     42 H24         -0.0700     0.0330     2.8170 hc         1 7FS       0.035367
     43 H25         -0.0780    -1.6870     2.4520 hc         1 7FS       0.035367
     44 H26          1.4310    -0.7860     2.4190 hc         1 7FS       0.035367
     45 C1          -3.7090    -0.6490     0.6190 ca         1 7FS       0.303000
     46 C2          -4.6460    -0.1650     1.5430 ca         1 7FS      -0.180000
     47 C3          -5.9680     0.1000     1.1450 ca         1 7FS      -0.067000
     48 C4          -6.3690    -0.1260    -0.1880 ca         1 7FS      -0.121300
     49 C5          -5.4270    -0.6270    -1.1110 ca         1 7FS      -0.067000
     50 C6          -4.1070    -0.8890    -0.7070 ca         1 7FS      -0.180000
     51 C7          -7.8090     0.1650    -0.6150 c3         1 7FS      -0.007400
     52 C8          -7.8670     1.2700    -1.6930 c3         1 7FS      -0.084100
     53 C9          -8.5340    -1.1190    -1.0740 c3         1 7FS      -0.084100
     54 H22         -4.3500     0.0150     2.5730 ha         1 7FS       0.109500
     55 H23         -6.6780     0.4810     1.8740 ha         1 7FS       0.106500
     56 H27         -5.7160    -0.8160    -2.1420 ha         1 7FS       0.106500
     57 H28         -3.3960    -1.2860    -1.4260 ha         1 7FS       0.109500
     58 H29         -8.3650     0.5450     0.2520 hc         1 7FS       0.045700
     59 H30         -7.3760     0.9470    -2.6190 hc         1 7FS       0.033033
     60 H31         -8.9070     1.5250    -1.9290 hc         1 7FS       0.033033
     61 H32         -7.3670     2.1790    -1.3370 hc         1 7FS       0.033033
     62 H33         -8.5010    -1.8810    -0.2860 hc         1 7FS       0.033033
     63 H34         -9.5870    -0.9090    -1.2990 hc         1 7FS       0.033033
     64 H35         -8.0690    -1.5370    -1.9760 hc         1 7FS       0.033033
@<TRIPOS>BOND
     1     1     2 ar  
     2     1     6 ar  
     3     1    21 1   
     4     2     3 ar  
     5     2    18 1   
     6     3     4 ar  
     7     3    22 1   
     8     4     5 ar  
     9     4     7 1   
    10     5     6 ar  
    11     5    10 1   
    12     6    23 1   
    13     7     8 1   
    14     7    24 1   
    15     7    25 1   
    16     8     9 1   
    17     8    26 1   
    18     8    27 1   
    19     9    10 1   
    20     9    11 1   
    21     9    28 1   
    22    10    14 1   
    23    10    29 1   
    24    11    12 1   
    25    11    15 1   
    26    11    30 1   
    27    12    13 1   
    28    12    17 1   
    29    12    20 1   
    30    13    14 1   
    31    13    31 1   
    32    13    32 1   
    33    14    33 1   
    34    14    34 1   
    35    15    16 1   
    36    15    35 1   
    37    15    36 1   
    38    16    17 1   
    39    16    37 1   
    40    16    38 1   
    41    17    19 1   
    42    17    39 1   
    43    18    40 1   
    44    19    41 1   
    45    19    45 1   
    46    20    42 1   
    47    20    43 1   
    48    20    44 1   
    49    45    46 ar  
    50    45    50 ar  
    51    46    47 ar  
    52    46    54 1   
    53    47    48 ar  
    54    47    55 1   
    55    48    49 ar  
    56    48    51 1   
    57    49    50 ar  
    58    49    56 1   
    59    50    57 1   
    60    51    52 1   
    61    51    53 1   
    62    51    58 1   
    63    52    59 1   
    64    52    60 1   
    65    52    61 1   
    66    53    62 1   
    67    53    63 1   
    68    53    64 1   
@<TRIPOS>SUBSTRUCTURE
     1 7FS         1 TEMP              0 ****  ****    0 ROOT
