@<TRIPOS>MOLECULE
7FT
   51    54     1     0     0
SMALL
No Charge or Current Charge


@<TRIPOS>ATOM
      1 C13         -2.5060     0.1280     1.2960 ca         1 7FT       0.332300
      2 C15         -4.4780     1.3110     0.9400 ca         1 7FT       0.338900
      3 C17         -4.0120    -0.5910    -0.4640 ca         1 7FT       0.127100
      4 C20          3.2540    -2.4470     0.1810 ca         1 7FT      -0.083300
      5 C21          2.5570    -3.4430    -0.5300 ca         1 7FT      -0.106500
      6 C22          2.6370    -4.7880    -0.1280 ca         1 7FT      -0.112000
      7 C24          4.1090    -4.1540     1.7010 ca         1 7FT      -0.112000
      8 C28         -3.7490    -1.2400    -2.7860 c3         1 7FT       0.151900
      9 N01          1.4350     3.2790    -0.9630 nb         1 7FT      -0.260000
     10 C02          0.2950     3.4130    -0.2610 ca         1 7FT       0.400900
     11 N03         -0.2970     2.5040     0.5350 nb         1 7FT      -0.254000
     12 C04          0.3370     1.3200     0.6340 ca         1 7FT       0.181500
     13 C05          1.5110     1.0790    -0.0410 ca         1 7FT      -0.242800
     14 C06          2.0610     2.0900    -0.8530 ca         1 7FT       0.302000
     15 N07          0.0320     0.1670     1.3470 na         1 7FT      -0.192400
     16 C08          1.0080    -0.8280     1.1590 cc         1 7FT      -0.166100
     17 C09          1.9290    -0.2730     0.2840 cd         1 7FT      -0.079400
     18 C12         -1.2190     0.0460     2.1250 c3         1 7FT       0.036300
     19 N14         -3.3290     1.1520     1.6300 nb         1 7FT      -0.649000
     20 C16         -4.8650     0.4710    -0.1150 ca         1 7FT      -0.131300
     21 C18         -2.8150    -0.7930     0.2600 ca         1 7FT      -0.117300
     22 C19          3.1520    -0.9870    -0.2480 c3         1 7FT       0.039100
     23 C23          3.4140    -5.1440     0.9870 ca         1 7FT      -0.111000
     24 C25          4.0290    -2.8090     1.3010 ca         1 7FT      -0.106500
     25 O27         -4.3640    -1.4250    -1.5000 os         1 7FT      -0.365100
     26 C29         -6.1740     0.7160    -0.8580 c3         1 7FT      -0.036800
     27 H1          -5.1060     2.1480     1.2450 h4         1 7FT       0.020100
     28 H2           1.9490    -3.1740    -1.3910 ha         1 7FT       0.114000
     29 H3           2.0960    -5.5530    -0.6810 ha         1 7FT       0.112500
     30 H4           4.7090    -4.4290     2.5670 ha         1 7FT       0.112500
     31 H5          -1.0730    -1.6690    -0.7160 hc         1 7FT       0.050033
     32 H6          -1.4630    -2.4130     0.8460 hc         1 7FT       0.050033
     33 H7          -2.4320    -2.7910    -0.5630 hc         1 7FT       0.050033
     34 H8          -4.1340    -1.9770    -3.5020 h1         1 7FT       0.038367
     35 H9          -3.9640    -0.2370    -3.1760 h1         1 7FT       0.038367
     36 H10         -2.6610    -1.3600    -2.7230 h1         1 7FT       0.038367
     37 H11          0.9630    -1.8090     1.6230 h4         1 7FT       0.224000
     38 H12         -0.0530     5.2380    -1.1200 hn         1 7FT       0.493500
     39 H13         -1.2930     4.6870    -0.0420 hn         1 7FT       0.493500
     40 H14         -1.2230     0.8370     2.8850 h1         1 7FT       0.077200
     41 H15         -1.2100    -0.9100     2.6620 h1         1 7FT       0.077200
     42 H16          4.0510    -0.4460     0.0690 hc         1 7FT       0.062200
     43 H17          3.1480    -0.9390    -1.3430 hc         1 7FT       0.062200
     44 H18          3.4760    -6.1850     1.2980 ha         1 7FT       0.112000
     45 H19          4.5660    -2.0480     1.8630 ha         1 7FT       0.114000
     46 H20         -6.8050    -0.1810    -0.8510 hc         1 7FT       0.046700
     47 H21         -6.7530     1.5290    -0.4050 hc         1 7FT       0.046700
     48 H22         -5.9870     0.9860    -1.9040 hc         1 7FT       0.046700
     49 C26         -1.8970    -1.9770    -0.0610 c3         1 7FT      -0.046800
     50 N11         -0.3340     4.6090    -0.3720 nv         1 7FT      -1.051900
     51 Cl           3.5600     1.9020    -1.7550 cl         1 7FT      -0.169000
@<TRIPOS>BOND
     1     1    18 1   
     2     1    19 ar  
     3     1    21 ar  
     4     2    19 ar  
     5     2    20 ar  
     6     2    27 1   
     7     3    20 ar  
     8     3    21 ar  
     9     3    25 1   
    10     4     5 ar  
    11     4    22 1   
    12     4    24 ar  
    13     5     6 ar  
    14     5    28 1   
    15     6    23 ar  
    16     6    29 1   
    17     7    23 ar  
    18     7    24 ar  
    19     7    30 1   
    20     8    25 1   
    21     8    34 1   
    22     8    35 1   
    23     8    36 1   
    24     9    10 ar  
    25     9    14 ar  
    26    10    11 ar  
    27    10    50 1   
    28    11    12 ar  
    29    12    13 ar  
    30    12    15 1   
    31    13    14 ar  
    32    13    17 1   
    33    14    51 1   
    34    15    16 1   
    35    15    18 1   
    36    16    17 2   
    37    16    37 1   
    38    17    22 1   
    39    18    40 1   
    40    18    41 1   
    41    20    26 1   
    42    21    49 1   
    43    22    42 1   
    44    22    43 1   
    45    23    44 1   
    46    24    45 1   
    47    26    46 1   
    48    26    47 1   
    49    26    48 1   
    50    31    49 1   
    51    32    49 1   
    52    33    49 1   
    53    38    50 1   
    54    39    50 1   
@<TRIPOS>SUBSTRUCTURE
     1 7FT         1 TEMP              0 ****  ****    0 ROOT
