@<TRIPOS>MOLECULE
7FT
   51    54     1     0     0
SMALL
abcg2


@<TRIPOS>ATOM
      1 C13         -2.4370     0.0840     1.2380 ca         1 7FT       0.332300
      2 C15         -4.4270     1.1830     1.0520 ca         1 7FT       0.338900
      3 C17         -3.9500    -0.5470    -0.4840 ca         1 7FT       0.127100
      4 C20          3.3110    -2.4590     0.2640 ca         1 7FT      -0.083300
      5 C21          2.6190    -3.4500    -0.4300 ca         1 7FT      -0.106500
      6 C22          2.6180    -4.7620     0.0210 ca         1 7FT      -0.112000
      7 C24          4.0010    -4.1230     1.8760 ca         1 7FT      -0.112000
      8 C28         -3.8310    -0.9140    -2.7940 c3         1 7FT       0.151900
      9 N01          1.3280     3.1750    -1.0340 nb         1 7FT      -0.260000
     10 C02          0.1600     3.2710    -0.3630 ca         1 7FT       0.400900
     11 N03         -0.3710     2.3310     0.4080 nb         1 7FT      -0.254000
     12 C04          0.3500     1.2250     0.4890 ca         1 7FT       0.181500
     13 C05          1.5880     0.9920    -0.1520 ca         1 7FT      -0.242800
     14 C06          2.0050     2.0650    -0.9180 ca         1 7FT       0.302000
     15 N07          0.0400     0.1240     1.2060 na         1 7FT      -0.192400
     16 C08          1.0550    -0.8040     1.0420 cc         1 7FT      -0.166100
     17 C09          2.0240    -0.3250     0.2170 cd         1 7FT      -0.079400
     18 C12         -1.1490    -0.0440     2.0160 c3         1 7FT       0.036300
     19 N14         -3.2680     1.0220     1.6710 nb         1 7FT      -0.649000
     20 C16         -4.8320     0.4410    -0.0470 ca         1 7FT      -0.131300
     21 C18         -2.7310    -0.7580     0.1600 ca         1 7FT      -0.117300
     22 C19          3.2730    -1.0320    -0.2110 c3         1 7FT       0.039100
     23 C23          3.3100    -5.1030     1.1770 ca         1 7FT      -0.111000
     24 C25          3.9990    -2.8100     1.4200 ca         1 7FT      -0.106500
     25 O27         -4.3200    -1.3360    -1.5260 os         1 7FT      -0.365100
     26 C29         -6.1580     0.6660    -0.7030 c3         1 7FT      -0.036800
     27 H1          -5.0820     1.9550     1.4460 h4         1 7FT       0.020100
     28 H2           2.0760    -3.1900    -1.3310 ha         1 7FT       0.114000
     29 H3           2.0780    -5.5210    -0.5320 ha         1 7FT       0.112500
     30 H4           4.5440    -4.3790     2.7770 ha         1 7FT       0.112500
     31 H5          -0.9970    -1.5000    -0.8940 hc         1 7FT       0.050033
     32 H6          -1.3570    -2.3560     0.5930 hc         1 7FT       0.050033
     33 H7          -2.3450    -2.6260    -0.8300 hc         1 7FT       0.050033
     34 H8          -4.2100    -1.6170    -3.5330 h1         1 7FT       0.038367
     35 H9          -4.1850     0.0880    -3.0470 h1         1 7FT       0.038367
     36 H10         -2.7390    -0.9190    -2.8310 h1         1 7FT       0.038367
     37 H11          0.9960    -1.7610     1.5350 h4         1 7FT       0.224000
     38 H12         -0.2270     5.0780    -1.2060 hn         1 7FT       0.493500
     39 H13         -1.4550     4.4820    -0.1780 hn         1 7FT       0.493500
     40 H14         -1.1590     0.6980     2.8150 h1         1 7FT       0.077200
     41 H15         -1.0790    -1.0260     2.4880 h1         1 7FT       0.077200
     42 H16          4.1480    -0.4940     0.1650 hc         1 7FT       0.062200
     43 H17          3.3510    -1.0030    -1.3010 hc         1 7FT       0.062200
     44 H18          3.3130    -6.1270     1.5280 ha         1 7FT       0.112000
     45 H19          4.5430    -2.0500     1.9700 ha         1 7FT       0.114000
     46 H20         -6.7700    -0.2360    -0.6880 hc         1 7FT       0.046700
     47 H21         -6.7110     1.4510    -0.1880 hc         1 7FT       0.046700
     48 H22         -6.0530     0.9670    -1.7460 hc         1 7FT       0.046700
     49 C26         -1.8120    -1.8640    -0.2660 c3         1 7FT      -0.046800
     50 N11         -0.4940     4.4480    -0.4690 nv         1 7FT      -1.051900
     51 CL           3.5020     1.9820    -1.7870 cl         1 7FT      -0.169000
@<TRIPOS>BOND
     1     1    18 1   
     2     1    19 ar  
     3     1    21 ar  
     4     2    19 ar  
     5     2    20 ar  
     6     2    27 1   
     7     3    20 ar  
     8     3    21 ar  
     9     3    25 1   
    10     4     5 ar  
    11     4    22 1   
    12     4    24 ar  
    13     5     6 ar  
    14     5    28 1   
    15     6    23 ar  
    16     6    29 1   
    17     7    23 ar  
    18     7    24 ar  
    19     7    30 1   
    20     8    25 1   
    21     8    34 1   
    22     8    35 1   
    23     8    36 1   
    24     9    10 ar  
    25     9    14 ar  
    26    10    11 ar  
    27    10    50 1   
    28    11    12 ar  
    29    12    13 ar  
    30    12    15 1   
    31    13    14 ar  
    32    13    17 1   
    33    14    51 1   
    34    15    16 1   
    35    15    18 1   
    36    16    17 2   
    37    16    37 1   
    38    17    22 1   
    39    18    40 1   
    40    18    41 1   
    41    20    26 1   
    42    21    49 1   
    43    22    42 1   
    44    22    43 1   
    45    23    44 1   
    46    24    45 1   
    47    26    46 1   
    48    26    47 1   
    49    26    48 1   
    50    31    49 1   
    51    32    49 1   
    52    33    49 1   
    53    38    50 1   
    54    39    50 1   
@<TRIPOS>SUBSTRUCTURE
     1 7FT         1 TEMP              0 ****  ****    0 ROOT
