@<TRIPOS>MOLECULE
7FU
   24    25     1     0     0
SMALL
No Charge or Current Charge


@<TRIPOS>ATOM
      1 N1           5.6280    -0.2970    -0.0490 n8         1 7FU      -0.718200
      2 C6          -0.6130     0.5450    -0.0300 ca         1 7FU      -0.203000
      3 C7          -0.9590    -0.7880    -0.0660 ca         1 7FU       0.162400
      4 C8           3.2010     0.4680    -0.0310 c          1 7FU       0.636700
      5 C10          0.7240     0.9700    -0.0190 ca         1 7FU      -0.002000
      6 C13          1.4010    -1.3720    -0.0800 ca         1 7FU      -0.079000
      7 N2          -5.1710    -1.1380    -0.0770 n8         1 7FU      -0.685000
      8 C3          -2.9740     0.0870    -0.0440 cc         1 7FU       0.688100
      9 N4          -2.3180    -1.0800    -0.0740 nd         1 7FU      -0.598100
     10 S5          -2.0210     1.5920    -0.0040 ss         1 7FU      -0.050200
     11 C9           1.7580     0.0040    -0.0430 ca         1 7FU      -0.172600
     12 O11          3.5000     1.6570     0.0010 o          1 7FU      -0.565100
     13 C12          0.0470    -1.7640    -0.0910 ca         1 7FU      -0.090000
     14 N15          4.1830    -0.5300    -0.0560 ns         1 7FU      -0.408300
     15 H1           6.0780    -0.7400     0.7660 hn         1 7FU       0.395500
     16 H2           6.0780    -0.6960    -0.8870 hn         1 7FU       0.395500
     17 H3           0.9530     2.0350     0.0090 ha         1 7FU       0.144000
     18 H4           2.1570    -2.1520    -0.1000 ha         1 7FU       0.111000
     19 H5          -5.7500    -1.3200     0.7610 hn         1 7FU       0.404000
     20 H6          -5.7490    -1.2750    -0.9240 hn         1 7FU       0.404000
     21 H7          -0.2190    -2.8170    -0.1180 ha         1 7FU       0.134000
     22 H8          -4.7920     1.0570    -0.0190 hn         1 7FU       0.498000
     23 H9           3.8410    -1.4900    -0.0820 hn         1 7FU       0.300500
     24 N14         -4.3720     0.1150    -0.0440 nu         1 7FU      -0.700200
@<TRIPOS>BOND
     1     1    14 1   
     2     1    15 1   
     3     1    16 1   
     4     2     3 ar  
     5     2     5 ar  
     6     2    10 1   
     7     3     9 1   
     8     3    13 ar  
     9     4    11 1   
    10     4    12 2   
    11     4    14 1   
    12     5    11 ar  
    13     5    17 1   
    14     6    11 ar  
    15     6    13 ar  
    16     6    18 1   
    17     7    19 1   
    18     7    20 1   
    19     7    24 1   
    20     8     9 2   
    21     8    10 1   
    22     8    24 1   
    23    13    21 1   
    24    14    23 1   
    25    22    24 1   
@<TRIPOS>SUBSTRUCTURE
     1 7FU         1 TEMP              0 ****  ****    0 ROOT
