@<TRIPOS>MOLECULE
7FU
   24    25     1     0     0
SMALL
bcc


@<TRIPOS>ATOM
      1 N1           5.4390    -0.1990    -0.1960 n8         1 7FU      -0.607800
      2 C6          -0.5560     0.4820    -0.0370 ca         1 7FU      -0.076100
      3 C7          -0.9270    -0.8710     0.0710 ca         1 7FU       0.162400
      4 C8           3.1730     0.4050     0.1850 c          1 7FU       0.703700
      5 C10          0.7600     0.8940     0.0040 ca         1 7FU      -0.020000
      6 C13          1.4010    -1.4190     0.2520 ca         1 7FU      -0.097000
      7 N2          -5.0690    -1.0540    -0.1580 n8         1 7FU      -0.574600
      8 C3          -2.9420    -0.0360    -0.1230 cc         1 7FU       0.688100
      9 N4          -2.2690    -1.1320     0.0220 nd         1 7FU      -0.598100
     10 S5          -1.9900     1.4520    -0.2140 ss         1 7FU      -0.177100
     11 C9           1.7580    -0.0700     0.1350 ca         1 7FU      -0.172600
     12 O11          3.4520     1.5340     0.5570 o          1 7FU      -0.565100
     13 C12          0.0790    -1.8230     0.2240 ca         1 7FU      -0.108000
     14 N15          4.0880    -0.4970    -0.2190 ns         1 7FU      -0.475300
     15 H1           5.9270    -0.9460     0.2810 hn         1 7FU       0.340300
     16 H2           5.7890    -0.1670    -1.1460 hn         1 7FU       0.340300
     17 H3           1.0180     1.9430    -0.0730 ha         1 7FU       0.162000
     18 H4           2.1600    -2.1780     0.3950 ha         1 7FU       0.129000
     19 H5          -5.7060    -0.9760     0.6240 hn         1 7FU       0.348800
     20 H6          -5.6200    -1.1070    -1.0060 hn         1 7FU       0.348800
     21 H7          -0.1790    -2.8690     0.3280 ha         1 7FU       0.152000
     22 H8          -4.6930     0.9810    -0.3300 hn         1 7FU       0.442800
     23 H9           3.7890    -1.3500    -0.6690 hn         1 7FU       0.300500
     24 N14         -4.2710     0.0720    -0.2060 nu         1 7FU      -0.645000
@<TRIPOS>BOND
     1     1    14 1   
     2     1    15 1   
     3     1    16 1   
     4     2     3 ar  
     5     2     5 ar  
     6     2    10 1   
     7     3     9 1   
     8     3    13 ar  
     9     4    11 1   
    10     4    12 2   
    11     4    14 1   
    12     5    11 ar  
    13     5    17 1   
    14     6    11 ar  
    15     6    13 ar  
    16     6    18 1   
    17     7    19 1   
    18     7    20 1   
    19     7    24 1   
    20     8     9 2   
    21     8    10 1   
    22     8    24 1   
    23    13    21 1   
    24    14    23 1   
    25    22    24 1   
@<TRIPOS>SUBSTRUCTURE
     1 7FU         1 TEMP              0 ****  ****    0 ROOT
