@<TRIPOS>MOLECULE
7FV
   56    60     1     0     0
SMALL
abcg2


@<TRIPOS>ATOM
      1 C1          -3.0950    -3.2190     1.9220 ca         1 7FV       0.210100
      2 C2          -3.7630    -3.4180     0.7220 ca         1 7FV      -0.222000
      3 C3          -3.9590    -2.3550    -0.1530 ca         1 7FV       0.249100
      4 C4          -3.4370    -1.0780     0.1510 ca         1 7FV      -0.319600
      5 C5          -2.8000    -0.9060     1.3840 ca         1 7FV       0.025000
      6 C6          -2.6270    -1.9440     2.2680 ca         1 7FV      -0.268000
      7 O7          -2.9370    -4.2770     2.7270 oh         1 7FV      -0.523100
      8 O8          -4.6430    -2.5950    -1.2720 oh         1 7FV      -0.541100
      9 C9          -3.6330     0.0280    -0.8000 c          1 7FV       0.662700
     10 O10         -4.5140    -0.0440    -1.6570 o          1 7FV      -0.611100
     11 N11         -2.8250     1.1360    -0.6920 n          1 7FV      -0.248400
     12 C12         -3.3160     2.5220    -0.8490 c6         1 7FV       0.131700
     13 C13         -2.8620     3.2760     0.4010 c6         1 7FV      -0.096400
     14 C14         -1.3480     3.3130     0.5170 c6         1 7FV      -0.025100
     15 C15         -4.8180     2.6730    -1.0160 c3         1 7FV      -0.099100
     16 C16         -1.4370     0.9970    -0.4990 ca         1 7FV      -0.003000
     17 C17         -0.7020     2.0220     0.0980 ca         1 7FV      -0.126300
     18 C18          0.6690     1.8560     0.2650 ca         1 7FV      -0.071000
     19 C19          1.3370     0.7130    -0.1530 cp         1 7FV      -0.168500
     20 C20          0.5940    -0.2780    -0.7970 ca         1 7FV      -0.047000
     21 C21         -0.7650    -0.1360    -0.9730 ca         1 7FV      -0.148000
     22 C22          2.8030     0.5650    -0.0140 cp         1 7FV       0.430500
     23 N23          3.4260     0.1370    -1.0850 nb         1 7FV      -0.665000
     24 C24          4.8380     0.6930     1.2280 ca         1 7FV      -0.071000
     25 C25          3.4770     0.8440     1.2170 ca         1 7FV      -0.114300
     26 C26          5.5360     0.2710     0.0790 ca         1 7FV      -0.079000
     27 C27          4.7670    -0.0170    -1.0710 ca         1 7FV       0.273000
     28 C28          5.4190    -0.4710    -2.2410 ca         1 7FV      -0.080000
     29 C29          6.7790    -0.6180    -2.2570 ca         1 7FV      -0.104000
     30 C30          7.5480    -0.3220    -1.1100 ca         1 7FV      -0.106000
     31 C31          6.9390     0.1120     0.0360 ca         1 7FV      -0.093000
     32 C32          2.7550     1.2330     2.4730 c3         1 7FV      -0.041800
     33 H1          -4.1510    -4.3970     0.4700 ha         1 7FV       0.148000
     34 H2          -2.4370     0.0730     1.6650 ha         1 7FV       0.122000
     35 H3          -2.1350    -1.7760     3.2180 ha         1 7FV       0.119000
     36 H4          -2.4710    -4.0230     3.5320 ho         1 7FV       0.471000
     37 H5          -4.8090    -1.7280    -1.7030 ho         1 7FV       0.515000
     38 H6          -2.8220     2.9550    -1.7260 h1         1 7FV       0.058700
     39 H7          -3.2510     4.2950     0.3720 hc         1 7FV       0.051700
     40 H8          -3.3080     2.7890     1.2740 hc         1 7FV       0.051700
     41 H9          -0.9550     4.1150    -0.1150 hc         1 7FV       0.051200
     42 H10         -1.0520     3.5640     1.5380 hc         1 7FV       0.051200
     43 H11         -5.3680     2.2310    -0.1840 hc         1 7FV       0.051033
     44 H12         -5.0370     3.7410    -1.0200 hc         1 7FV       0.051033
     45 H13         -5.1920     2.2560    -1.9460 hc         1 7FV       0.051033
     46 H14          1.2230     2.6690     0.7200 ha         1 7FV       0.114000
     47 H15          1.0890    -1.1630    -1.1730 ha         1 7FV       0.131000
     48 H16         -1.3060    -0.9140    -1.4940 ha         1 7FV       0.126000
     49 H17          5.3940     0.8850     2.1390 ha         1 7FV       0.116000
     50 H18          4.8210    -0.6960    -3.1150 ha         1 7FV       0.131000
     51 H19          7.2740    -0.9640    -3.1550 ha         1 7FV       0.116000
     52 H20          8.6230    -0.4410    -1.1430 ha         1 7FV       0.115000
     53 H21          7.5240     0.3380     0.9200 ha         1 7FV       0.114000
     54 H22          2.4510     2.2800     2.4680 hc         1 7FV       0.044700
     55 H23          1.8540     0.6390     2.6260 hc         1 7FV       0.044700
     56 H24          3.4030     1.0910     3.3370 hc         1 7FV       0.044700
@<TRIPOS>BOND
     1     1     2 ar  
     2     1     6 ar  
     3     1     7 1   
     4     2     3 ar  
     5     2    33 1   
     6     3     4 ar  
     7     3     8 1   
     8     4     5 ar  
     9     4     9 1   
    10     5     6 ar  
    11     5    34 1   
    12     6    35 1   
    13     7    36 1   
    14     8    37 1   
    15     9    10 2   
    16     9    11 1   
    17    11    12 1   
    18    11    16 1   
    19    12    13 1   
    20    12    15 1   
    21    12    38 1   
    22    13    14 1   
    23    13    39 1   
    24    13    40 1   
    25    14    17 1   
    26    14    41 1   
    27    14    42 1   
    28    15    43 1   
    29    15    44 1   
    30    15    45 1   
    31    16    17 ar  
    32    16    21 ar  
    33    17    18 ar  
    34    18    19 ar  
    35    18    46 1   
    36    19    20 ar  
    37    19    22 1   
    38    20    21 ar  
    39    20    47 1   
    40    21    48 1   
    41    22    23 ar  
    42    22    25 ar  
    43    23    27 ar  
    44    24    25 ar  
    45    24    26 ar  
    46    24    49 1   
    47    25    32 1   
    48    26    27 ar  
    49    26    31 ar  
    50    27    28 ar  
    51    28    29 ar  
    52    28    50 1   
    53    29    30 ar  
    54    29    51 1   
    55    30    31 ar  
    56    30    52 1   
    57    31    53 1   
    58    32    54 1   
    59    32    55 1   
    60    32    56 1   
@<TRIPOS>SUBSTRUCTURE
     1 7FV         1 TEMP              0 ****  ****    0 ROOT
