@<TRIPOS>MOLECULE
7FV
   56    60     1     0     0
SMALL
No Charge or Current Charge


@<TRIPOS>ATOM
      1 C1          -3.8720    -3.7030     1.3560 ca         1 7FV       0.210100
      2 C2          -4.2920    -3.6530     0.0250 ca         1 7FV      -0.222000
      3 C3          -4.1990    -2.4580    -0.6980 ca         1 7FV       0.249100
      4 C4          -3.6680    -1.2960    -0.1010 ca         1 7FV      -0.319600
      5 C5          -3.2630    -1.3540     1.2540 ca         1 7FV       0.025000
      6 C6          -3.3630    -2.5560     1.9720 ca         1 7FV      -0.268000
      7 O7          -3.9680    -4.8670     2.0510 oh         1 7FV      -0.523100
      8 O8          -4.6330    -2.4430    -1.9850 oh         1 7FV      -0.541100
      9 C9          -3.5640    -0.0020    -0.8760 c          1 7FV       0.662700
     10 O10         -4.1980     0.1430    -1.9180 o          1 7FV      -0.611100
     11 N11         -2.8140     1.0590    -0.3210 n          1 7FV      -0.248400
     12 C12         -3.4570     2.4120    -0.3520 c6         1 7FV       0.131700
     13 C13         -2.6300     3.4770     0.4040 c6         1 7FV      -0.096400
     14 C14         -1.1980     3.5370    -0.1210 c6         1 7FV      -0.025100
     15 C15         -4.8880     2.3980     0.2640 c3         1 7FV      -0.099100
     16 C16         -1.3520     0.9840    -0.2410 ca         1 7FV      -0.003000
     17 C17         -0.5620     2.1560    -0.1140 ca         1 7FV      -0.126300
     18 C18          0.8410     2.0740    -0.0290 ca         1 7FV      -0.071000
     19 C19          1.5150     0.8330    -0.0550 cp         1 7FV      -0.168500
     20 C20          0.7290    -0.3290    -0.2150 ca         1 7FV      -0.047000
     21 C21         -0.6700    -0.2560    -0.3070 ca         1 7FV      -0.148000
     22 C22          3.0100     0.7460     0.0360 cp         1 7FV       0.430500
     23 N23          3.5960    -0.0400    -0.8970 nb         1 7FV      -0.665000
     24 C24          5.1730     1.2810     1.0180 ca         1 7FV      -0.071000
     25 C25          3.7730     1.4170     1.0380 ca         1 7FV      -0.114300
     26 C26          5.7660     0.4820     0.0270 ca         1 7FV      -0.079000
     27 C27          4.9400    -0.1720    -0.9190 ca         1 7FV       0.273000
     28 C28          5.5500    -0.9780    -1.9000 ca         1 7FV      -0.080000
     29 C29          6.9470    -1.1310    -1.9450 ca         1 7FV      -0.104000
     30 C30          7.7550    -0.4770    -1.0020 ca         1 7FV      -0.106000
     31 C31          7.1660     0.3300    -0.0150 ca         1 7FV      -0.093000
     32 C32          3.1410     2.2480     2.1510 c3         1 7FV      -0.041800
     33 H1          -4.6970    -4.5420    -0.4490 ha         1 7FV       0.148000
     34 H2          -2.8700    -0.4740     1.7600 ha         1 7FV       0.122000
     35 H3          -3.0410    -2.5840     3.0110 ha         1 7FV       0.119000
     36 H4          -3.6310    -4.7060     2.9570 ho         1 7FV       0.471000
     37 H5          -4.5920    -1.4940    -2.2690 ho         1 7FV       0.515000
     38 H6          -3.5430     2.7260    -1.4030 h1         1 7FV       0.058700
     39 H7          -3.1000     4.4660     0.3080 hc         1 7FV       0.051700
     40 H8          -2.6120     3.2390     1.4770 hc         1 7FV       0.051700
     41 H9          -1.1920     3.9360    -1.1440 hc         1 7FV       0.051200
     42 H10         -0.6120     4.2360     0.4930 hc         1 7FV       0.051200
     43 H11         -4.8720     2.0340     1.2990 hc         1 7FV       0.051033
     44 H12         -5.3250     3.4040     0.2720 hc         1 7FV       0.051033
     45 H13         -5.5750     1.7610    -0.3030 hc         1 7FV       0.051033
     46 H14          1.4210     2.9920     0.0390 ha         1 7FV       0.114000
     47 H15          1.2120    -1.3030    -0.2660 ha         1 7FV       0.131000
     48 H16         -1.1980    -1.1920    -0.4460 ha         1 7FV       0.126000
     49 H17          5.7880     1.7820     1.7630 ha         1 7FV       0.116000
     50 H18          4.9300    -1.4880    -2.6330 ha         1 7FV       0.131000
     51 H19          7.4010    -1.7570    -2.7100 ha         1 7FV       0.116000
     52 H20          8.8360    -0.5940    -1.0350 ha         1 7FV       0.115000
     53 H21          7.7960     0.8330     0.7150 ha         1 7FV       0.114000
     54 H22          2.9850     3.2850     1.8310 hc         1 7FV       0.044700
     55 H23          2.1730     1.8380     2.4630 hc         1 7FV       0.044700
     56 H24          3.7780     2.2720     3.0430 hc         1 7FV       0.044700
@<TRIPOS>BOND
     1     1     2 ar  
     2     1     6 ar  
     3     1     7 1   
     4     2     3 ar  
     5     2    33 1   
     6     3     4 ar  
     7     3     8 1   
     8     4     5 ar  
     9     4     9 1   
    10     5     6 ar  
    11     5    34 1   
    12     6    35 1   
    13     7    36 1   
    14     8    37 1   
    15     9    10 2   
    16     9    11 1   
    17    11    12 1   
    18    11    16 1   
    19    12    13 1   
    20    12    15 1   
    21    12    38 1   
    22    13    14 1   
    23    13    39 1   
    24    13    40 1   
    25    14    17 1   
    26    14    41 1   
    27    14    42 1   
    28    15    43 1   
    29    15    44 1   
    30    15    45 1   
    31    16    17 ar  
    32    16    21 ar  
    33    17    18 ar  
    34    18    19 ar  
    35    18    46 1   
    36    19    20 ar  
    37    19    22 1   
    38    20    21 ar  
    39    20    47 1   
    40    21    48 1   
    41    22    23 ar  
    42    22    25 ar  
    43    23    27 ar  
    44    24    25 ar  
    45    24    26 ar  
    46    24    49 1   
    47    25    32 1   
    48    26    27 ar  
    49    26    31 ar  
    50    27    28 ar  
    51    28    29 ar  
    52    28    50 1   
    53    29    30 ar  
    54    29    51 1   
    55    30    31 ar  
    56    30    52 1   
    57    31    53 1   
    58    32    54 1   
    59    32    55 1   
    60    32    56 1   
@<TRIPOS>SUBSTRUCTURE
     1 7FV         1 TEMP              0 ****  ****    0 ROOT
