@<TRIPOS>MOLECULE
7FW
   65    69     1     0     0
SMALL
No Charge or Current Charge


@<TRIPOS>ATOM
      1 C1          -7.6660     1.3680     0.4370 ca         1 7FW       0.197100
      2 C2          -6.5540     2.0150     0.9910 ca         1 7FW      -0.314000
      3 C3          -5.2620     1.6580     0.5820 ca         1 7FW       0.206100
      4 C4          -5.0740     0.6420    -0.3750 ca         1 7FW      -0.217600
      5 C5          -6.2000     0.0200    -0.9510 ca         1 7FW       0.006000
      6 C6          -7.4920     0.3780    -0.5360 ca         1 7FW      -0.184000
      7 O7          -8.9180     1.7140     0.8350 oh         1 7FW      -0.526100
      8 O8          -4.2040     2.3430     1.0910 oh         1 7FW      -0.529100
      9 C9          -3.7050     0.2180    -0.8290 c          1 7FW       0.641700
     10 O10         -3.4320     0.2480    -2.0250 o          1 7FW      -0.564100
     11 N11         -2.7430    -0.1550     0.1480 n          1 7FW      -0.232400
     12 C12         -3.2350    -0.7740     1.4070 c3         1 7FW       0.157300
     13 C13         -4.2740    -1.8790     1.2100 ca         1 7FW      -0.107300
     14 C14         -4.0390    -2.9380     0.3080 ca         1 7FW      -0.107000
     15 C15         -5.0120    -3.9330     0.1130 ca         1 7FW      -0.107000
     16 C16         -6.2270    -3.8770     0.8160 ca         1 7FW      -0.108000
     17 C17         -6.4670    -2.8260     1.7160 ca         1 7FW      -0.107000
     18 C18         -5.4940    -1.8310     1.9130 ca         1 7FW      -0.107000
     19 C19         -1.3230    -0.1820    -0.1230 ca         1 7FW      -0.013000
     20 C20         -0.5650    -1.3510     0.1070 ca         1 7FW      -0.129000
     21 C21          0.7780    -1.4340    -0.2990 ca         1 7FW      -0.060500
     22 C22          1.3900    -0.3630    -0.9850 ca         1 7FW      -0.158600
     23 C23          0.6020     0.7590    -1.3130 ca         1 7FW      -0.060500
     24 C24         -0.7400     0.8360    -0.9040 ca         1 7FW      -0.129000
     25 C25          2.8290    -0.4250    -1.4590 c          1 7FW       0.621700
     26 N26          3.7880    -1.1140    -0.6750 n          1 7FW      -0.409800
     27 O27          3.1330     0.0530    -2.5450 o          1 7FW      -0.597100
     28 C28          3.6310    -1.2370     0.7950 c3         1 7FW       0.090300
     29 C29          5.1420    -1.3850    -1.2140 c3         1 7FW       0.138300
     30 C30          6.1890    -0.3450    -0.8230 ca         1 7FW      -0.096300
     31 C31          7.2160     1.8440    -1.1270 ca         1 7FW      -0.080000
     32 C32          6.2520     0.8900    -1.4920 ca         1 7FW      -0.083000
     33 C33          7.1070    -0.6150     0.2110 ca         1 7FW      -0.074000
     34 C34          8.1350     1.5900    -0.0940 ca         1 7FW       0.226000
     35 C35          8.0800     0.3290     0.5920 ca         1 7FW       0.219000
     36 N36          8.9440     0.0260     1.5980 nb         1 7FW      -0.625000
     37 C37          9.8580     0.9830     1.9150 ca         1 7FW       0.293900
     38 C38          9.9120     2.2260     1.2390 ca         1 7FW       0.296900
     39 N39          9.0540     2.5400     0.2320 nb         1 7FW      -0.623000
     40 H1          -6.6950     2.7990     1.7310 ha         1 7FW       0.116000
     41 H2          -6.0710    -0.7580    -1.7020 ha         1 7FW       0.130000
     42 H3          -8.3580    -0.1150    -0.9690 ha         1 7FW       0.137000
     43 H4          -8.8360     2.4200     1.5100 ho         1 7FW       0.467000
     44 H5          -4.5520     3.0370     1.6890 ho         1 7FW       0.469000
     45 H6          -2.3930    -1.1840     1.9760 h1         1 7FW       0.062200
     46 H7          -3.6600     0.0130     2.0400 h1         1 7FW       0.062200
     47 H8          -3.1080    -2.9880    -0.2510 ha         1 7FW       0.116500
     48 H9          -4.8260    -4.7450    -0.5860 ha         1 7FW       0.114000
     49 H10         -6.9810    -4.6460     0.6630 ha         1 7FW       0.114000
     50 H11         -7.4090    -2.7800     2.2590 ha         1 7FW       0.114000
     51 H12         -5.6960    -1.0170     2.6060 ha         1 7FW       0.116500
     52 H13         -1.0080    -2.2130     0.5990 ha         1 7FW       0.129500
     53 H14          1.3260    -2.3540    -0.1120 ha         1 7FW       0.123500
     54 H15          1.0310     1.5780    -1.8870 ha         1 7FW       0.123500
     55 H16         -1.3230     1.7130    -1.1770 ha         1 7FW       0.129500
     56 H17          3.2740    -2.2430     1.0490 h1         1 7FW       0.042700
     57 H18          4.5920    -1.0740     1.2980 h1         1 7FW       0.042700
     58 H19          2.9210    -0.4900     1.1730 h1         1 7FW       0.042700
     59 H20          5.4630    -2.3720    -0.8550 h1         1 7FW       0.068700
     60 H21          5.0990    -1.4590    -2.3090 h1         1 7FW       0.068700
     61 H22          7.2520     2.7950    -1.6530 ha         1 7FW       0.136000
     62 H23          5.5560     1.1140    -2.2970 ha         1 7FW       0.139000
     63 H24          7.0680    -1.5680     0.7310 ha         1 7FW       0.130000
     64 H25         10.5550     0.7530     2.7190 h4         1 7FW       0.029100
     65 H26         10.6520     2.9770     1.5100 h4         1 7FW       0.029100
@<TRIPOS>BOND
     1     1     2 ar  
     2     1     6 ar  
     3     1     7 1   
     4     2     3 ar  
     5     2    40 1   
     6     3     4 ar  
     7     3     8 1   
     8     4     5 ar  
     9     4     9 1   
    10     5     6 ar  
    11     5    41 1   
    12     6    42 1   
    13     7    43 1   
    14     8    44 1   
    15     9    10 2   
    16     9    11 1   
    17    11    12 1   
    18    11    19 1   
    19    12    13 1   
    20    12    45 1   
    21    12    46 1   
    22    13    14 ar  
    23    13    18 ar  
    24    14    15 ar  
    25    14    47 1   
    26    15    16 ar  
    27    15    48 1   
    28    16    17 ar  
    29    16    49 1   
    30    17    18 ar  
    31    17    50 1   
    32    18    51 1   
    33    19    20 ar  
    34    19    24 ar  
    35    20    21 ar  
    36    20    52 1   
    37    21    22 ar  
    38    21    53 1   
    39    22    23 ar  
    40    22    25 1   
    41    23    24 ar  
    42    23    54 1   
    43    24    55 1   
    44    25    26 1   
    45    25    27 2   
    46    26    28 1   
    47    26    29 1   
    48    28    56 1   
    49    28    57 1   
    50    28    58 1   
    51    29    30 1   
    52    29    59 1   
    53    29    60 1   
    54    30    32 ar  
    55    30    33 ar  
    56    31    32 ar  
    57    31    34 ar  
    58    31    61 1   
    59    32    62 1   
    60    33    35 ar  
    61    33    63 1   
    62    34    35 ar  
    63    34    39 ar  
    64    35    36 ar  
    65    36    37 ar  
    66    37    38 ar  
    67    37    64 1   
    68    38    39 ar  
    69    38    65 1   
@<TRIPOS>SUBSTRUCTURE
     1 7FW         1 TEMP              0 ****  ****    0 ROOT
