@<TRIPOS>MOLECULE
7FW
   65    69     1     0     0
SMALL
abcg2


@<TRIPOS>ATOM
      1 C1          -7.6770     1.3770     0.2780 ca         1 7FW       0.197100
      2 C2          -6.6170     2.1690     0.7070 ca         1 7FW      -0.314000
      3 C3          -5.3200     1.8640     0.3120 ca         1 7FW       0.206100
      4 C4          -5.0710     0.7630    -0.5080 ca         1 7FW      -0.217600
      5 C5          -6.1490     0.0040    -0.9480 ca         1 7FW       0.006000
      6 C6          -7.4440     0.2850    -0.5570 ca         1 7FW      -0.184000
      7 O7          -8.9470     1.6310     0.6370 oh         1 7FW      -0.526100
      8 O8          -4.2630     2.6090     0.6840 oh         1 7FW      -0.529100
      9 C9          -3.6960     0.4760    -1.0100 c          1 7FW       0.641700
     10 O10         -3.4160     0.6310    -2.1850 o          1 7FW      -0.564100
     11 N11         -2.7910     0.0140    -0.0960 n          1 7FW      -0.232400
     12 C12         -3.2120    -0.4760     1.2080 c3         1 7FW       0.157300
     13 C13         -4.0050    -1.7600     1.1900 ca         1 7FW      -0.107300
     14 C14         -4.0590    -2.6030     0.0860 ca         1 7FW      -0.107000
     15 C15         -4.7910    -3.7830     0.1330 ca         1 7FW      -0.107000
     16 C16         -5.4770    -4.1370     1.2850 ca         1 7FW      -0.108000
     17 C17         -5.4290    -3.2990     2.3930 ca         1 7FW      -0.107000
     18 C18         -4.7000    -2.1200     2.3420 ca         1 7FW      -0.107000
     19 C19         -1.4300    -0.1220    -0.4590 ca         1 7FW      -0.013000
     20 C20         -0.7540    -1.3140    -0.2200 ca         1 7FW      -0.129000
     21 C21          0.5950    -1.4250    -0.5170 ca         1 7FW      -0.060500
     22 C22          1.2860    -0.3580    -1.0790 ca         1 7FW      -0.158600
     23 C23          0.5990     0.8250    -1.3410 ca         1 7FW      -0.060500
     24 C24         -0.7390     0.9530    -1.0140 ca         1 7FW      -0.129000
     25 C25          2.7090    -0.4780    -1.5200 c          1 7FW       0.621700
     26 N26          3.5970    -1.0130    -0.6550 n          1 7FW      -0.409800
     27 O27          3.0180    -0.1130    -2.6480 o          1 7FW      -0.597100
     28 C28          3.3620    -1.2120     0.7630 c3         1 7FW       0.090300
     29 C29          4.9300    -1.3690    -1.1130 c3         1 7FW       0.138300
     30 C30          5.9810    -0.3890    -0.6600 ca         1 7FW      -0.096300
     31 C31          6.8800     1.8620    -0.7260 ca         1 7FW      -0.080000
     32 C32          5.9420     0.9520    -1.1210 ca         1 7FW      -0.083000
     33 C33          6.9750    -0.7780     0.1980 ca         1 7FW      -0.074000
     34 C34          7.9120     1.4770     0.1580 ca         1 7FW       0.226000
     35 C35          7.9590     0.1420     0.6220 ca         1 7FW       0.219000
     36 N36          8.9320    -0.2650     1.4700 nb         1 7FW      -0.625000
     37 C37          9.8120     0.6270     1.8290 ca         1 7FW       0.293900
     38 C38          9.7650     1.9630     1.3640 ca         1 7FW       0.296900
     39 N39          8.8390     2.3810     0.5480 nb         1 7FW      -0.623000
     40 H1          -6.8020     3.0300     1.3420 ha         1 7FW       0.116000
     41 H2          -5.9700    -0.8420    -1.5990 ha         1 7FW       0.130000
     42 H3          -8.2680    -0.3290    -0.8940 ha         1 7FW       0.137000
     43 H4          -8.9920     2.4060     1.2080 ho         1 7FW       0.467000
     44 H5          -4.5380     3.3340     1.2580 ho         1 7FW       0.469000
     45 H6          -2.3100    -0.6140     1.8070 h1         1 7FW       0.062200
     46 H7          -3.7810     0.2930     1.7290 h1         1 7FW       0.062200
     47 H8          -3.5370    -2.3470    -0.8290 ha         1 7FW       0.116500
     48 H9          -4.8230    -4.4260    -0.7370 ha         1 7FW       0.114000
     49 H10         -6.0480    -5.0560     1.3200 ha         1 7FW       0.114000
     50 H11         -5.9660    -3.5600     3.2950 ha         1 7FW       0.114000
     51 H12         -4.6760    -1.4680     3.2080 ha         1 7FW       0.116500
     52 H13         -1.2710    -2.1640     0.2060 ha         1 7FW       0.129500
     53 H14          1.0950    -2.3650    -0.3220 ha         1 7FW       0.123500
     54 H15          1.1180     1.6670    -1.7790 ha         1 7FW       0.123500
     55 H16         -1.2380     1.8970    -1.1810 ha         1 7FW       0.129500
     56 H17          3.1650    -2.2590     0.9980 h1         1 7FW       0.042700
     57 H18          4.2480    -0.9020     1.3180 h1         1 7FW       0.042700
     58 H19          2.5310    -0.6090     1.1160 h1         1 7FW       0.042700
     59 H20          5.1660    -2.3640    -0.7290 h1         1 7FW       0.068700
     60 H21          4.9250    -1.4370    -2.2000 h1         1 7FW       0.068700
     61 H22          6.8540     2.8840    -1.0810 ha         1 7FW       0.136000
     62 H23          5.1580     1.2520    -1.8050 ha         1 7FW       0.139000
     63 H24          7.0260    -1.7950     0.5680 ha         1 7FW       0.130000
     64 H25         10.6000     0.3200     2.5070 h4         1 7FW       0.029100
     65 H26         10.5170     2.6730     1.6880 h4         1 7FW       0.029100
@<TRIPOS>BOND
     1     1     2 ar  
     2     1     6 ar  
     3     1     7 1   
     4     2     3 ar  
     5     2    40 1   
     6     3     4 ar  
     7     3     8 1   
     8     4     5 ar  
     9     4     9 1   
    10     5     6 ar  
    11     5    41 1   
    12     6    42 1   
    13     7    43 1   
    14     8    44 1   
    15     9    10 2   
    16     9    11 1   
    17    11    12 1   
    18    11    19 1   
    19    12    13 1   
    20    12    45 1   
    21    12    46 1   
    22    13    14 ar  
    23    13    18 ar  
    24    14    15 ar  
    25    14    47 1   
    26    15    16 ar  
    27    15    48 1   
    28    16    17 ar  
    29    16    49 1   
    30    17    18 ar  
    31    17    50 1   
    32    18    51 1   
    33    19    20 ar  
    34    19    24 ar  
    35    20    21 ar  
    36    20    52 1   
    37    21    22 ar  
    38    21    53 1   
    39    22    23 ar  
    40    22    25 1   
    41    23    24 ar  
    42    23    54 1   
    43    24    55 1   
    44    25    26 1   
    45    25    27 2   
    46    26    28 1   
    47    26    29 1   
    48    28    56 1   
    49    28    57 1   
    50    28    58 1   
    51    29    30 1   
    52    29    59 1   
    53    29    60 1   
    54    30    32 ar  
    55    30    33 ar  
    56    31    32 ar  
    57    31    34 ar  
    58    31    61 1   
    59    32    62 1   
    60    33    35 ar  
    61    33    63 1   
    62    34    35 ar  
    63    34    39 ar  
    64    35    36 ar  
    65    36    37 ar  
    66    37    38 ar  
    67    37    64 1   
    68    38    39 ar  
    69    38    65 1   
@<TRIPOS>SUBSTRUCTURE
     1 7FW         1 TEMP              0 ****  ****    0 ROOT
