@<TRIPOS>MOLECULE
7FX
   35    37     1     0     0
SMALL
No Charge or Current Charge


@<TRIPOS>ATOM
      1 C01         -0.0950     0.9490    -0.4560 c6         1 7FX       0.106000
      2 C02         -2.5190     0.8540     0.4640 c6         1 7FX       0.042300
      3 C03         -1.0760    -1.2130     0.2740 cc         1 7FX       0.015600
      4 C04         -4.0100     1.2580     0.2130 c3         1 7FX       0.304000
      5 C05         -1.5680     1.3980    -0.6520 c6         1 7FX      -0.117400
      6 C06         -1.2310    -2.5230     0.6140 cd         1 7FX      -0.225000
      7 C07         -2.5300    -2.6480     1.1460 cd         1 7FX       0.264900
      8 N08          0.0190    -0.5200    -0.2520 n          1 7FX      -0.315000
      9 N09         -3.1860    -1.5000     1.1710 nc         1 7FX      -0.520800
     10 N13         -2.2800    -0.6080     0.6210 na         1 7FX       0.081800
     11 C14          2.5050    -0.4530    -0.1370 ca         1 7FX      -0.234600
     12 C15          2.5610     0.1780     1.1250 ca         1 7FX      -0.005000
     13 C16          3.7380     0.8180     1.5460 ca         1 7FX      -0.253000
     14 C17          4.8640     0.8290     0.7150 ca         1 7FX       0.205100
     15 C18          4.8210     0.2010    -0.5330 ca         1 7FX      -0.259000
     16 C19          3.6500    -0.4420    -0.9590 ca         1 7FX       0.224100
     17 O20          3.6290    -1.0110    -2.1960 oh         1 7FX      -0.511100
     18 O21          6.0050     1.4480     1.1170 oh         1 7FX      -0.525100
     19 C22          1.2430    -1.1560    -0.5690 c          1 7FX       0.649700
     20 O23          1.2730    -2.2960    -1.0170 o          1 7FX      -0.534100
     21 F10         -4.5330     0.6240    -0.8630 f          1 7FX      -0.104667
     22 F11         -4.8010     0.9740     1.2750 f          1 7FX      -0.104667
     23 F12         -4.1320     2.5860    -0.0120 f          1 7FX      -0.104667
     24 H1           0.5000     1.2500    -1.3300 h1         1 7FX       0.064200
     25 H2           0.3160     1.4680     0.4200 h1         1 7FX       0.064200
     26 H3          -2.2230     1.3200     1.4140 h1         1 7FX       0.094700
     27 H4          -1.6080     2.4950    -0.6920 hc         1 7FX       0.080200
     28 H5          -1.9150     1.0410    -1.6320 hc         1 7FX       0.080200
     29 H6          -0.5080    -3.3220     0.5130 ha         1 7FX       0.167000
     30 H7          -3.0090    -3.5420     1.5260 h4         1 7FX       0.041100
     31 H8           1.7010     0.1570     1.7920 ha         1 7FX       0.123000
     32 H9           3.7660     1.2980     2.5210 ha         1 7FX       0.123000
     33 H10          5.7020     0.2220    -1.1680 ha         1 7FX       0.136000
     34 H11          4.5160    -0.9000    -2.5990 ho         1 7FX       0.474000
     35 H12          5.8470     1.8250     2.0080 ho         1 7FX       0.473000
@<TRIPOS>BOND
     1     1     5 1   
     2     1     8 1   
     3     1    24 1   
     4     1    25 1   
     5     2     4 1   
     6     2     5 1   
     7     2    10 1   
     8     2    26 1   
     9     3     6 2   
    10     3     8 1   
    11     3    10 1   
    12     4    21 1   
    13     4    22 1   
    14     4    23 1   
    15     5    27 1   
    16     5    28 1   
    17     6     7 1   
    18     6    29 1   
    19     7     9 2   
    20     7    30 1   
    21     8    19 1   
    22     9    10 1   
    23    11    12 ar  
    24    11    16 ar  
    25    11    19 1   
    26    12    13 ar  
    27    12    31 1   
    28    13    14 ar  
    29    13    32 1   
    30    14    15 ar  
    31    14    18 1   
    32    15    16 ar  
    33    15    33 1   
    34    16    17 1   
    35    17    34 1   
    36    18    35 1   
    37    19    20 2   
@<TRIPOS>SUBSTRUCTURE
     1 7FX         1 TEMP              0 ****  ****    0 ROOT
