@<TRIPOS>MOLECULE
7FX
   35    37     1     0     0
SMALL
abcg2


@<TRIPOS>ATOM
      1 C01         -0.0780     0.9170     0.5910 c6         1 7FX       0.106000
      2 C02         -2.5640     0.8080     0.3610 c6         1 7FX       0.042300
      3 C03         -1.1330    -1.2410     0.5990 cc         1 7FX       0.015600
      4 C04         -3.7120     0.9900    -0.6290 c3         1 7FX       0.304000
      5 C05         -1.2800     1.4370    -0.1720 c6         1 7FX      -0.117400
      6 C06         -1.3950    -2.5610     0.9000 cd         1 7FX      -0.225000
      7 C07         -2.7840    -2.5950     1.0890 cd         1 7FX       0.264900
      8 N08          0.0400    -0.5260     0.4020 n          1 7FX      -0.315000
      9 N09         -3.3390    -1.4150     0.9220 nc         1 7FX      -0.520800
     10 N13         -2.3280    -0.5980     0.6060 na         1 7FX       0.081800
     11 C14          2.4440    -0.3740     0.0570 ca         1 7FX      -0.234600
     12 C15          2.9120     0.1120     1.2740 ca         1 7FX      -0.005000
     13 C16          4.1390     0.7380     1.3860 ca         1 7FX      -0.253000
     14 C17          4.9230     0.8970     0.2440 ca         1 7FX       0.205100
     15 C18          4.4710     0.4290    -0.9860 ca         1 7FX      -0.259000
     16 C19          3.2430    -0.2120    -1.0800 ca         1 7FX       0.224100
     17 O20          2.7670    -0.6680    -2.2480 oh         1 7FX      -0.511100
     18 O21          6.1240     1.4950     0.2690 oh         1 7FX      -0.525100
     19 C22          1.1840    -1.1620    -0.0100 c          1 7FX       0.649700
     20 O23          1.1790    -2.3220    -0.3700 o          1 7FX      -0.534100
     21 F10         -3.5520     0.2350    -1.7190 f          1 7FX      -0.104667
     22 F11         -4.9050     0.7000    -0.1110 f          1 7FX      -0.104667
     23 F12         -3.7690     2.2670    -1.0300 f          1 7FX      -0.104667
     24 H1           0.8190     1.4010     0.2160 h1         1 7FX       0.064200
     25 H2          -0.1630     1.1480     1.6560 h1         1 7FX       0.064200
     26 H3          -2.8520     1.2930     1.2980 h1         1 7FX       0.094700
     27 H4          -1.3310     2.5180    -0.0530 hc         1 7FX       0.080200
     28 H5          -1.1440     1.2240    -1.2350 hc         1 7FX       0.080200
     29 H6          -0.6990    -3.3730     0.9900 ha         1 7FX       0.167000
     30 H7          -3.3930    -3.4490     1.3470 h4         1 7FX       0.041100
     31 H8           2.3070    -0.0130     2.1640 ha         1 7FX       0.123000
     32 H9           4.4840     1.0940     2.3490 ha         1 7FX       0.123000
     33 H10          5.0840     0.5670    -1.8710 ha         1 7FX       0.136000
     34 H11          3.3810    -0.4690    -2.9650 ho         1 7FX       0.474000
     35 H12          6.3490     1.7670     1.1660 ho         1 7FX       0.473000
@<TRIPOS>BOND
     1     1     5 1   
     2     1     8 1   
     3     1    24 1   
     4     1    25 1   
     5     2     4 1   
     6     2     5 1   
     7     2    10 1   
     8     2    26 1   
     9     3     6 2   
    10     3     8 1   
    11     3    10 1   
    12     4    21 1   
    13     4    22 1   
    14     4    23 1   
    15     5    27 1   
    16     5    28 1   
    17     6     7 1   
    18     6    29 1   
    19     7     9 2   
    20     7    30 1   
    21     8    19 1   
    22     9    10 1   
    23    11    12 ar  
    24    11    16 ar  
    25    11    19 1   
    26    12    13 ar  
    27    12    31 1   
    28    13    14 ar  
    29    13    32 1   
    30    14    15 ar  
    31    14    18 1   
    32    15    16 ar  
    33    15    33 1   
    34    16    17 1   
    35    17    34 1   
    36    18    35 1   
    37    19    20 2   
@<TRIPOS>SUBSTRUCTURE
     1 7FX         1 TEMP              0 ****  ****    0 ROOT
