@<TRIPOS>MOLECULE
7FY
   39    41     1     0     0
SMALL
No Charge or Current Charge


@<TRIPOS>ATOM
      1 CAG          2.6540    -0.4810     1.3710 c6         1 7FY      -0.164200
      2 CAW          2.0140    -1.8630     1.2090 c          1 7FY       0.477100
      3 OAD          0.9940    -2.2120     1.8000 o          1 7FY      -0.460100
      4 CAR          2.6050    -2.6210    -0.0200 c          1 7FY       0.476100
      5 OAA          3.4290    -3.5290     0.0680 o          1 7FY      -0.456100
      6 CAE          2.3130    -1.8660    -1.3200 c6         1 7FY      -0.143200
      7 CAF          2.5570    -0.3600    -1.1500 c2         1 7FY      -0.189200
      8 CAS          2.6820     0.2650     0.0400 c2         1 7FY       0.059800
      9 NAQ          2.8580     1.6380     0.1110 nu         1 7FY      -0.740100
     10 SAX          1.6570     2.7370    -0.3300 sy         1 7FY       1.150600
     11 OAB          1.7280     3.7360     0.7390 o          1 7FY      -0.527000
     12 OAC          1.9540     3.0580    -1.7290 o          1 7FY      -0.527000
     13 CAV          0.1140     1.8150    -0.2100 ca         1 7FY      -0.315500
     14 CAP         -0.4550     1.2260    -1.3560 ca         1 7FY      -0.016500
     15 CAN         -1.6330     0.4690    -1.2450 ca         1 7FY      -0.125500
     16 CAO         -0.5050     1.6390     1.0430 ca         1 7FY      -0.016500
     17 CAM         -1.6840     0.8820     1.1450 ca         1 7FY      -0.125500
     18 CAU         -2.2720     0.2800     0.0050 cp         1 7FY       0.033000
     19 CAT         -3.5250    -0.5340     0.1190 cp         1 7FY      -0.060000
     20 CAK         -3.7340    -1.6770    -0.6950 ca         1 7FY      -0.090500
     21 CAI         -4.9090    -2.4410    -0.5880 ca         1 7FY      -0.110500
     22 CAH         -5.9020    -2.0790     0.3370 ca         1 7FY      -0.096000
     23 CAJ         -5.7170    -0.9530     1.1540 ca         1 7FY      -0.110500
     24 CAL         -4.5420    -0.1890     1.0470 ca         1 7FY      -0.090500
     25 H1           2.1280     0.0790     2.1550 hc         1 7FY       0.087200
     26 H2           3.7070    -0.6360     1.6410 hc         1 7FY       0.087200
     27 H3           2.8980    -2.2920    -2.1470 hc         1 7FY       0.089700
     28 H4           1.2380    -1.9650    -1.5210 hc         1 7FY       0.089700
     29 H5           2.6050     0.2200    -2.0740 ha         1 7FY       0.218000
     30 H6           3.1740     2.0080     0.9990 hn         1 7FY       0.491000
     31 H7           0.0120     1.3450    -2.3320 ha         1 7FY       0.136000
     32 H8          -2.0610     0.0330    -2.1440 ha         1 7FY       0.124000
     33 H9          -0.0720     2.0770     1.9420 ha         1 7FY       0.136000
     34 H10         -2.1350     0.7460     2.1240 ha         1 7FY       0.124000
     35 H11         -2.9730    -1.9830    -1.4090 ha         1 7FY       0.115500
     36 H12         -5.0480    -3.3160    -1.2200 ha         1 7FY       0.117500
     37 H13         -6.8110    -2.6710     0.4210 ha         1 7FY       0.117000
     38 H14         -6.4860    -0.6690     1.8700 ha         1 7FY       0.117500
     39 H15         -4.4260     0.6870     1.6800 ha         1 7FY       0.115500
@<TRIPOS>BOND
     1     1     2 1   
     2     1     8 1   
     3     1    25 1   
     4     1    26 1   
     5     2     3 2   
     6     2     4 1   
     7     4     5 2   
     8     4     6 1   
     9     6     7 1   
    10     6    27 1   
    11     6    28 1   
    12     7     8 2   
    13     7    29 1   
    14     8     9 1   
    15     9    10 1   
    16     9    30 1   
    17    10    11 2   
    18    10    12 2   
    19    10    13 1   
    20    13    14 ar  
    21    13    16 ar  
    22    14    15 ar  
    23    14    31 1   
    24    15    18 ar  
    25    15    32 1   
    26    16    17 ar  
    27    16    33 1   
    28    17    18 ar  
    29    17    34 1   
    30    18    19 1   
    31    19    20 ar  
    32    19    24 ar  
    33    20    21 ar  
    34    20    35 1   
    35    21    22 ar  
    36    21    36 1   
    37    22    23 ar  
    38    22    37 1   
    39    23    24 ar  
    40    23    38 1   
    41    24    39 1   
@<TRIPOS>SUBSTRUCTURE
     1 7FY         1 TEMP              0 ****  ****    0 ROOT
