@<TRIPOS>MOLECULE
7FY
   39    41     1     0     0
SMALL
bcc


@<TRIPOS>ATOM
      1 CAG          2.1220    -0.8110     0.9980 c6         1 7FY      -0.164200
      2 CAW          2.4180    -2.2500     0.6780 c          1 7FY       0.477100
      3 OAD          2.0900    -3.1530     1.4010 o          1 7FY      -0.460100
      4 CAR          3.1710    -2.5900    -0.6240 c          1 7FY       0.476100
      5 OAA          3.6240    -3.6960    -0.7460 o          1 7FY      -0.456100
      6 CAE          3.2640    -1.5280    -1.6760 c6         1 7FY      -0.143200
      7 CAF          3.2250    -0.1340    -1.1400 c2         1 7FY      -0.139200
      8 CAS          2.7010     0.1840     0.0390 c2         1 7FY       0.059800
      9 NAQ          2.6160     1.5380     0.4510 nu         1 7FY      -0.684900
     10 SAX          1.5160     2.5480    -0.2870 sy         1 7FY       1.292200
     11 OAB          1.5010     3.7500     0.5260 o          1 7FY      -0.597800
     12 OAC          1.8560     2.6230    -1.6950 o          1 7FY      -0.597800
     13 CAV         -0.0390     1.7220    -0.1440 ca         1 7FY      -0.315500
     14 CAP         -0.4790     0.8970    -1.1690 ca         1 7FY      -0.034500
     15 CAN         -1.6630     0.1970    -1.0100 ca         1 7FY      -0.143500
     16 CAO         -0.7690     1.8580     1.0310 ca         1 7FY      -0.034500
     17 CAM         -1.9520     1.1550     1.1730 ca         1 7FY      -0.143500
     18 CAU         -2.4170     0.3130     0.1590 cp         1 7FY       0.033000
     19 CAT         -3.6800    -0.4320     0.3200 cp         1 7FY      -0.060000
     20 CAK         -3.8130    -1.7270    -0.1850 ca         1 7FY      -0.108500
     21 CAI         -5.0020    -2.4250    -0.0350 ca         1 7FY      -0.128500
     22 CAH         -6.0790    -1.8400     0.6190 ca         1 7FY      -0.114000
     23 CAJ         -5.9570    -0.5520     1.1240 ca         1 7FY      -0.128500
     24 CAL         -4.7680     0.1450     0.9770 ca         1 7FY      -0.108500
     25 H1           1.0330    -0.6930     1.0590 hc         1 7FY       0.087200
     26 H2           2.4890    -0.6210     2.0130 hc         1 7FY       0.087200
     27 H3           4.1650    -1.6900    -2.2690 hc         1 7FY       0.089700
     28 H4           2.4260    -1.6860    -2.3690 hc         1 7FY       0.089700
     29 H5           3.6350     0.6410    -1.7730 ha         1 7FY       0.168000
     30 H6           2.6270     1.6810     1.4560 hn         1 7FY       0.435800
     31 H7           0.0790     0.8040    -2.0900 ha         1 7FY       0.154000
     32 H8          -2.0130    -0.4250    -1.8230 ha         1 7FY       0.142000
     33 H9          -0.4280     2.4980     1.8330 ha         1 7FY       0.154000
     34 H10         -2.5090     1.2500     2.0950 ha         1 7FY       0.142000
     35 H11         -2.9770    -2.2040    -0.6810 ha         1 7FY       0.133500
     36 H12         -5.0860    -3.4310    -0.4250 ha         1 7FY       0.135500
     37 H13         -7.0070    -2.3850     0.7340 ha         1 7FY       0.135000
     38 H14         -6.7930    -0.0850     1.6290 ha         1 7FY       0.135500
     39 H15         -4.6960     1.1570     1.3570 ha         1 7FY       0.133500
@<TRIPOS>BOND
     1     1     2 1   
     2     1     8 1   
     3     1    25 1   
     4     1    26 1   
     5     2     3 2   
     6     2     4 1   
     7     4     5 2   
     8     4     6 1   
     9     6     7 1   
    10     6    27 1   
    11     6    28 1   
    12     7     8 2   
    13     7    29 1   
    14     8     9 1   
    15     9    10 1   
    16     9    30 1   
    17    10    11 2   
    18    10    12 2   
    19    10    13 1   
    20    13    14 ar  
    21    13    16 ar  
    22    14    15 ar  
    23    14    31 1   
    24    15    18 ar  
    25    15    32 1   
    26    16    17 ar  
    27    16    33 1   
    28    17    18 ar  
    29    17    34 1   
    30    18    19 1   
    31    19    20 ar  
    32    19    24 ar  
    33    20    21 ar  
    34    20    35 1   
    35    21    22 ar  
    36    21    36 1   
    37    22    23 ar  
    38    22    37 1   
    39    23    24 ar  
    40    23    38 1   
    41    24    39 1   
@<TRIPOS>SUBSTRUCTURE
     1 7FY         1 TEMP              0 ****  ****    0 ROOT
