@<TRIPOS>MOLECULE
7FZ
   37    39     1     0     0
SMALL
abcg2


@<TRIPOS>ATOM
      1 O01         -5.2580    -0.2980     0.1360 oh         1 7FZ      -0.538100
      2 C02         -3.9170    -0.1480     0.0670 ca         1 7FZ       0.143100
      3 C03         -3.2900     1.0710     0.3440 ca         1 7FZ      -0.137800
      4 C04         -4.0980     2.2720     0.7450 c3         1 7FZ      -0.041300
      5 C05         -1.9070     1.1400     0.2470 ca         1 7FZ      -0.064000
      6 C06         -1.1350     0.0370    -0.1120 cp         1 7FZ      -0.069000
      7 C07          0.3350     0.1370    -0.2090 cp         1 7FZ      -0.021000
      8 C08          1.1520    -0.9120     0.2280 ca         1 7FZ      -0.090000
      9 C09          2.5280    -0.7950     0.1390 ca         1 7FZ      -0.081300
     10 C10          3.5960    -1.7680     0.5630 c5         1 7FZ      -0.033100
     11 C11          4.8440    -0.8770     0.6500 c5         1 7FZ      -0.079400
     12 C12          4.6140     0.2210    -0.3940 c5         1 7FZ       0.215600
     13 O13          5.3180     1.3920    -0.0640 oh         1 7FZ      -0.647000
     14 C14          3.1090     0.3520    -0.3890 ca         1 7FZ      -0.125300
     15 C15          2.3180     1.4000    -0.8260 ca         1 7FZ      -0.086000
     16 C16          0.9360     1.2860    -0.7320 ca         1 7FZ      -0.107000
     17 C17         -1.7960    -1.1610    -0.3770 ca         1 7FZ      -0.064000
     18 C18         -3.1770    -1.2760    -0.2970 ca         1 7FZ      -0.137800
     19 C19         -3.8680    -2.5730    -0.5990 c3         1 7FZ      -0.041300
     20 H1          -5.6870     0.5240     0.3970 ho         1 7FZ       0.465000
     21 H2          -4.6780     2.0940     1.6550 hc         1 7FZ       0.042533
     22 H3          -3.4490     3.1230     0.9430 hc         1 7FZ       0.042533
     23 H4          -4.7980     2.5790    -0.0360 hc         1 7FZ       0.042533
     24 H5          -1.4210     2.0800     0.4820 ha         1 7FZ       0.115000
     25 H6           0.7070    -1.7990     0.6640 ha         1 7FZ       0.117000
     26 H7           3.3690    -2.2760     1.5000 hc         1 7FZ       0.054700
     27 H8           3.7250    -2.5430    -0.1990 hc         1 7FZ       0.054700
     28 H9           4.8870    -0.4090     1.6370 hc         1 7FZ       0.059700
     29 H10          5.7760    -1.4220     0.4960 hc         1 7FZ       0.059700
     30 H11          4.9270    -0.1490    -1.3810 h1         1 7FZ       0.037700
     31 H12          5.3780     1.9440    -0.8500 ho         1 7FZ       0.444000
     32 H13          2.7550     2.3010    -1.2400 ha         1 7FZ       0.112000
     33 H14          0.3150     2.0990    -1.0850 ha         1 7FZ       0.113000
     34 H15         -1.2250    -2.0340    -0.6750 ha         1 7FZ       0.115000
     35 H16         -4.5930    -2.4660    -1.4070 hc         1 7FZ       0.042533
     36 H17         -3.1470    -3.3330    -0.8970 hc         1 7FZ       0.042533
     37 H18         -4.4110    -2.9540     0.2680 hc         1 7FZ       0.042533
@<TRIPOS>BOND
     1     1     2 1   
     2     1    20 1   
     3     2     3 ar  
     4     2    18 ar  
     5     3     4 1   
     6     3     5 ar  
     7     4    21 1   
     8     4    22 1   
     9     4    23 1   
    10     5     6 ar  
    11     5    24 1   
    12     6     7 1   
    13     6    17 ar  
    14     7     8 ar  
    15     7    16 ar  
    16     8     9 ar  
    17     8    25 1   
    18     9    10 1   
    19     9    14 ar  
    20    10    11 1   
    21    10    26 1   
    22    10    27 1   
    23    11    12 1   
    24    11    28 1   
    25    11    29 1   
    26    12    13 1   
    27    12    14 1   
    28    12    30 1   
    29    13    31 1   
    30    14    15 ar  
    31    15    16 ar  
    32    15    32 1   
    33    16    33 1   
    34    17    18 ar  
    35    17    34 1   
    36    18    19 1   
    37    19    35 1   
    38    19    36 1   
    39    19    37 1   
@<TRIPOS>SUBSTRUCTURE
     1 7FZ         1 TEMP              0 ****  ****    0 ROOT
