@<TRIPOS>MOLECULE
7FZ
   37    39     1     0     0
SMALL
No Charge or Current Charge


@<TRIPOS>ATOM
      1 O01         -5.3300    -0.2580     0.1530 oh         1 7FZ      -0.538100
      2 C02         -3.9690    -0.1560     0.0700 ca         1 7FZ       0.143100
      3 C03         -3.3360     1.0830     0.3090 ca         1 7FZ      -0.137800
      4 C04         -4.1400     2.3320     0.6690 c3         1 7FZ      -0.041300
      5 C05         -1.9330     1.1700     0.2190 ca         1 7FZ      -0.064000
      6 C06         -1.1410     0.0420    -0.1070 cp         1 7FZ      -0.069000
      7 C07          0.3510     0.1470    -0.2000 cp         1 7FZ      -0.021000
      8 C08          1.1880    -0.9240     0.2110 ca         1 7FZ      -0.090000
      9 C09          2.5820    -0.8030     0.1170 ca         1 7FZ      -0.081300
     10 C10          3.6010    -1.8460     0.4930 c5         1 7FZ      -0.033100
     11 C11          4.8980    -0.9580     0.5930 c5         1 7FZ      -0.079400
     12 C12          4.6750     0.2440    -0.4030 c5         1 7FZ       0.215600
     13 O13          5.3120     1.4350     0.0500 oh         1 7FZ      -0.647000
     14 C14          3.1680     0.3470    -0.3720 ca         1 7FZ      -0.125300
     15 C15          2.3750     1.4240    -0.8010 ca         1 7FZ      -0.086000
     16 C16          0.9740     1.3210    -0.7080 ca         1 7FZ      -0.107000
     17 C17         -1.8020    -1.1870    -0.3420 ca         1 7FZ      -0.064000
     18 C18         -3.2030    -1.2950    -0.2570 ca         1 7FZ      -0.137800
     19 C19         -3.8730    -2.6420    -0.5220 c3         1 7FZ      -0.041300
     20 H1          -5.6890     0.6220     0.3870 ho         1 7FZ       0.465000
     21 H2          -4.7070     2.1870     1.5960 hc         1 7FZ       0.042533
     22 H3          -3.4910     3.2040     0.8210 hc         1 7FZ       0.042533
     23 H4          -4.8470     2.5920    -0.1280 hc         1 7FZ       0.042533
     24 H5          -1.4470     2.1220     0.4170 ha         1 7FZ       0.115000
     25 H6           0.7560    -1.8380     0.6110 ha         1 7FZ       0.117000
     26 H7           3.3720    -2.3530     1.4380 hc         1 7FZ       0.054700
     27 H8           3.6940    -2.6130    -0.2840 hc         1 7FZ       0.054700
     28 H9           5.0100    -0.5850     1.6170 hc         1 7FZ       0.059700
     29 H10          5.8090    -1.5210     0.3630 hc         1 7FZ       0.059700
     30 H11          5.0100    -0.0180    -1.4170 h1         1 7FZ       0.037700
     31 H12          5.0400     2.1460    -0.5680 ho         1 7FZ       0.444000
     32 H13          2.8300     2.3260    -1.2040 ha         1 7FZ       0.112000
     33 H14          0.3650     2.1530    -1.0510 ha         1 7FZ       0.113000
     34 H15         -1.2180    -2.0650    -0.6070 ha         1 7FZ       0.115000
     35 H16         -4.5680    -2.5750    -1.3680 hc         1 7FZ       0.042533
     36 H17         -3.1410    -3.4240    -0.7590 hc         1 7FZ       0.042533
     37 H18         -4.4410    -2.9780     0.3530 hc         1 7FZ       0.042533
@<TRIPOS>BOND
     1     1     2 1   
     2     1    20 1   
     3     2     3 ar  
     4     2    18 ar  
     5     3     4 1   
     6     3     5 ar  
     7     4    21 1   
     8     4    22 1   
     9     4    23 1   
    10     5     6 ar  
    11     5    24 1   
    12     6     7 1   
    13     6    17 ar  
    14     7     8 ar  
    15     7    16 ar  
    16     8     9 ar  
    17     8    25 1   
    18     9    10 1   
    19     9    14 ar  
    20    10    11 1   
    21    10    26 1   
    22    10    27 1   
    23    11    12 1   
    24    11    28 1   
    25    11    29 1   
    26    12    13 1   
    27    12    14 1   
    28    12    30 1   
    29    13    31 1   
    30    14    15 ar  
    31    15    16 ar  
    32    15    32 1   
    33    16    33 1   
    34    17    18 ar  
    35    17    34 1   
    36    18    19 1   
    37    19    35 1   
    38    19    36 1   
    39    19    37 1   
@<TRIPOS>SUBSTRUCTURE
     1 7FZ         1 TEMP              0 ****  ****    0 ROOT
