@<TRIPOS>MOLECULE
7G0
   40    42     1     0     0
SMALL
abcg2


@<TRIPOS>ATOM
      1 C01         -3.7150     0.5940     0.9600 ca         1 7G0      -0.175000
      2 C02         -4.6320     0.0170     0.0850 ca         1 7G0       0.136100
      3 C03         -4.1660    -0.6430    -1.0480 ca         1 7G0      -0.175000
      4 C04         -2.8020    -0.7210    -1.2900 ca         1 7G0      -0.067500
      5 C05         -1.8680    -0.1530    -0.4270 ca         1 7G0      -0.111300
      6 C06         -2.3550     0.5060     0.6990 ca         1 7G0      -0.067500
      7 O01         -5.9660     0.0690     0.2870 oh         1 7G0      -0.535100
      8 C07         -0.3900    -0.2480    -0.7120 c6         1 7G0      -0.009400
      9 C08          0.3740    -0.9800     0.4030 c6         1 7G0      -0.054400
     10 C09          1.8510    -1.0040     0.0640 c5         1 7G0      -0.070700
     11 C10          2.4540     0.3930    -0.1200 c5         1 7G0      -0.040000
     12 C11          1.7240     1.0910    -1.2650 c6         1 7G0      -0.059400
     13 C12          0.2140     1.1330    -1.0160 c6         1 7G0      -0.068400
     14 C13          2.8280    -1.7140     1.0000 c5         1 7G0      -0.065400
     15 C14          4.2030    -1.1300     0.6040 c5         1 7G0      -0.115400
     16 C15          3.9060     0.0000    -0.4110 c5         1 7G0       0.170300
     17 O02          4.7760     1.1040    -0.3380 oh         1 7G0      -0.651000
     18 C16          2.3820     1.2400     1.1540 c3         1 7G0      -0.071100
     19 H1          -4.0590     1.1110     1.8490 ha         1 7G0       0.119500
     20 H2          -4.8700    -1.0940    -1.7380 ha         1 7G0       0.119500
     21 H3          -2.4590    -1.2380    -2.1790 ha         1 7G0       0.112000
     22 H4          -1.6670     0.9690     1.3980 ha         1 7G0       0.112000
     23 H5          -6.1620     0.5510     1.0980 ho         1 7G0       0.463000
     24 H6          -0.2750    -0.8560    -1.6180 hc         1 7G0       0.045700
     25 H7           0.2020    -0.5030     1.3730 hc         1 7G0       0.044200
     26 H8          -0.0120    -2.0000     0.4930 hc         1 7G0       0.044200
     27 H9           1.9330    -1.5040    -0.9130 hc         1 7G0       0.042700
     28 H10          2.0990     2.1080    -1.4110 hc         1 7G0       0.044200
     29 H11          1.9270     0.5480    -2.1960 hc         1 7G0       0.044200
     30 H12         -0.2900     1.5520    -1.8900 hc         1 7G0       0.042700
     31 H13         -0.0040     1.8190    -0.1910 hc         1 7G0       0.042700
     32 H14          2.5960    -1.4980     2.0450 hc         1 7G0       0.044200
     33 H15          2.7830    -2.7990     0.8850 hc         1 7G0       0.044200
     34 H16          4.7290    -0.7240     1.4710 hc         1 7G0       0.046200
     35 H17          4.8580    -1.8860     0.1670 hc         1 7G0       0.046200
     36 H18          3.9310    -0.4280    -1.4250 h1         1 7G0       0.026700
     37 H19          5.6580     0.8080    -0.5800 ho         1 7G0       0.440000
     38 H20          2.9030     0.7810     1.9950 hc         1 7G0       0.035033
     39 H21          2.8280     2.2210     0.9880 hc         1 7G0       0.035033
     40 H22          1.3540     1.4100     1.4730 hc         1 7G0       0.035033
@<TRIPOS>BOND
     1     1     2 ar  
     2     1     6 ar  
     3     1    19 1   
     4     2     3 ar  
     5     2     7 1   
     6     3     4 ar  
     7     3    20 1   
     8     4     5 ar  
     9     4    21 1   
    10     5     6 ar  
    11     5     8 1   
    12     6    22 1   
    13     7    23 1   
    14     8     9 1   
    15     8    13 1   
    16     8    24 1   
    17     9    10 1   
    18     9    25 1   
    19     9    26 1   
    20    10    11 1   
    21    10    14 1   
    22    10    27 1   
    23    11    12 1   
    24    11    16 1   
    25    11    18 1   
    26    12    13 1   
    27    12    28 1   
    28    12    29 1   
    29    13    30 1   
    30    13    31 1   
    31    14    15 1   
    32    14    32 1   
    33    14    33 1   
    34    15    16 1   
    35    15    34 1   
    36    15    35 1   
    37    16    17 1   
    38    16    36 1   
    39    17    37 1   
    40    18    38 1   
    41    18    39 1   
    42    18    40 1   
@<TRIPOS>SUBSTRUCTURE
     1 7G0         1 TEMP              0 ****  ****    0 ROOT
