@<TRIPOS>MOLECULE
7G0
   40    42     1     0     0
SMALL
No Charge or Current Charge


@<TRIPOS>ATOM
      1 C01         -3.7780     0.5740     0.9570 ca         1 7G0      -0.175000
      2 C02         -4.6870    -0.0290     0.0730 ca         1 7G0       0.136100
      3 C03         -4.2180    -0.6890    -1.0710 ca         1 7G0      -0.175000
      4 C04         -2.8380    -0.7510    -1.3360 ca         1 7G0      -0.067500
      5 C05         -1.9170    -0.1490    -0.4540 ca         1 7G0      -0.111300
      6 C06         -2.3980     0.5140     0.6950 ca         1 7G0      -0.067500
      7 O01         -6.0250     0.0250     0.3200 oh         1 7G0      -0.535100
      8 C07         -0.4110    -0.2200    -0.7490 c6         1 7G0      -0.009400
      9 C08          0.3580    -0.9980     0.3640 c6         1 7G0      -0.054400
     10 C09          1.8720    -1.0130     0.0410 c5         1 7G0      -0.070700
     11 C10          2.4850     0.4110    -0.1020 c5         1 7G0      -0.040000
     12 C11          1.7350     1.1550    -1.2490 c6         1 7G0      -0.059400
     13 C12          0.1970     1.1990    -0.9950 c6         1 7G0      -0.068400
     14 C13          2.8330    -1.6960     1.0500 c5         1 7G0      -0.065400
     15 C14          4.2380    -1.1380     0.6250 c5         1 7G0      -0.115400
     16 C15          3.9380    -0.0500    -0.4650 c5         1 7G0       0.170300
     17 O02          4.8930     1.0100    -0.4450 oh         1 7G0      -0.651000
     18 C16          2.4280     1.3010     1.1930 c3         1 7G0      -0.071100
     19 H1          -4.1320     1.0890     1.8470 ha         1 7G0       0.119500
     20 H2          -4.9220    -1.1560    -1.7550 ha         1 7G0       0.119500
     21 H3          -2.4890    -1.2670    -2.2270 ha         1 7G0       0.112000
     22 H4          -1.7030     0.9850     1.3880 ha         1 7G0       0.112000
     23 H5          -6.1670     0.5220     1.1550 ho         1 7G0       0.463000
     24 H6          -0.2760    -0.7850    -1.6820 hc         1 7G0       0.045700
     25 H7           0.1840    -0.5450     1.3490 hc         1 7G0       0.044200
     26 H8          -0.0180    -2.0280     0.4260 hc         1 7G0       0.044200
     27 H9           1.9290    -1.5520    -0.9150 hc         1 7G0       0.042700
     28 H10          2.1280     2.1740    -1.3670 hc         1 7G0       0.044200
     29 H11          1.9230     0.6450    -2.2040 hc         1 7G0       0.044200
     30 H12         -0.2970     1.6570    -1.8630 hc         1 7G0       0.042700
     31 H13         -0.0240     1.8610    -0.1480 hc         1 7G0       0.042700
     32 H14          2.5930    -1.4330     2.0860 hc         1 7G0       0.044200
     33 H15          2.7850    -2.7890     0.9820 hc         1 7G0       0.044200
     34 H16          4.7630    -0.7180     1.4910 hc         1 7G0       0.046200
     35 H17          4.8820    -1.9280     0.2220 hc         1 7G0       0.046200
     36 H18          3.9400    -0.5190    -1.4590 h1         1 7G0       0.026700
     37 H19          5.7660     0.6050    -0.6360 ho         1 7G0       0.440000
     38 H20          3.0160     0.8900     2.0200 hc         1 7G0       0.035033
     39 H21          2.8260     2.3040     0.9950 hc         1 7G0       0.035033
     40 H22          1.4070     1.4300     1.5680 hc         1 7G0       0.035033
@<TRIPOS>BOND
     1     1     2 ar  
     2     1     6 ar  
     3     1    19 1   
     4     2     3 ar  
     5     2     7 1   
     6     3     4 ar  
     7     3    20 1   
     8     4     5 ar  
     9     4    21 1   
    10     5     6 ar  
    11     5     8 1   
    12     6    22 1   
    13     7    23 1   
    14     8     9 1   
    15     8    13 1   
    16     8    24 1   
    17     9    10 1   
    18     9    25 1   
    19     9    26 1   
    20    10    11 1   
    21    10    14 1   
    22    10    27 1   
    23    11    12 1   
    24    11    16 1   
    25    11    18 1   
    26    12    13 1   
    27    12    28 1   
    28    12    29 1   
    29    13    30 1   
    30    13    31 1   
    31    14    15 1   
    32    14    32 1   
    33    14    33 1   
    34    15    16 1   
    35    15    34 1   
    36    15    35 1   
    37    16    17 1   
    38    16    36 1   
    39    17    37 1   
    40    18    38 1   
    41    18    39 1   
    42    18    40 1   
@<TRIPOS>SUBSTRUCTURE
     1 7G0         1 TEMP              0 ****  ****    0 ROOT
