@<TRIPOS>MOLECULE
7G1
   44    47     1     0     0
SMALL
No Charge or Current Charge


@<TRIPOS>ATOM
      1 C01          0.2300    -0.2380    -1.3930 c6         1 7G1      -0.063400
      2 C02         -0.3780    -0.4710     0.0380 c5         1 7G1       0.006300
      3 C03          0.4890     0.2870     1.1030 c6         1 7G1      -0.047400
      4 C04          1.9750    -0.1170     0.9730 c5         1 7G1      -0.070700
      5 C05          2.5850     0.2100    -0.4250 c5         1 7G1      -0.040000
      6 C06          1.7570    -0.5700    -1.4900 c6         1 7G1      -0.058400
      7 C07         -1.8310    -0.0320     0.0420 ca         1 7G1      -0.120300
      8 C08         -2.6950    -1.1000    -0.1180 ca         1 7G1      -0.048300
      9 C09         -1.9670    -2.4110    -0.2390 c5         1 7G1      -0.036100
     10 C10         -0.5820    -2.0080     0.3850 c5         1 7G1      -0.072400
     11 C11         -2.3290     1.2800     0.1450 ca         1 7G1      -0.054000
     12 C12         -3.7220     1.4890     0.1020 ca         1 7G1      -0.210000
     13 C13         -4.5970     0.3960    -0.0510 ca         1 7G1       0.137100
     14 C14         -4.0850    -0.9080    -0.1670 ca         1 7G1      -0.134000
     15 O01         -5.9420     0.6010    -0.0960 oh         1 7G1      -0.536100
     16 C15          4.0460    -0.3440    -0.1690 c5         1 7G1       0.170300
     17 C16          3.0710     0.5380     1.9150 c5         1 7G1      -0.066400
     18 C17          4.4830     0.3430     1.1800 c5         1 7G1      -0.115400
     19 O02          4.9520    -0.0530    -1.2310 oh         1 7G1      -0.651000
     20 C18          2.5860     1.7330    -0.8200 c3         1 7G1      -0.072100
     21 H1          -0.3120    -0.8500    -2.1260 hc         1 7G1       0.044200
     22 H2           0.0530     0.7990    -1.7020 hc         1 7G1       0.044200
     23 H3           0.3900     1.3730     0.9840 hc         1 7G1       0.044700
     24 H4           0.1270     0.0600     2.1150 hc         1 7G1       0.044700
     25 H5           1.9800    -1.2000     1.1480 hc         1 7G1       0.044700
     26 H6           1.9040    -1.6490    -1.3480 hc         1 7G1       0.043700
     27 H7           2.1270    -0.3460    -2.5000 hc         1 7G1       0.043700
     28 H8          -2.4500    -3.2260     0.3110 hc         1 7G1       0.053700
     29 H9          -1.8690    -2.7220    -1.2860 hc         1 7G1       0.053700
     30 H10          0.2330    -2.6440     0.0230 hc         1 7G1       0.046200
     31 H11         -0.6200    -2.1500     1.4720 hc         1 7G1       0.046200
     32 H12         -1.6560     2.1280     0.2480 ha         1 7G1       0.114000
     33 H13         -4.1130     2.5000     0.1840 ha         1 7G1       0.111000
     34 H14         -4.7550    -1.7540    -0.2930 ha         1 7G1       0.129000
     35 H15         -6.1100     1.5630    -0.0020 ho         1 7G1       0.463000
     36 H16          4.0020    -1.4330    -0.0220 h1         1 7G1       0.026700
     37 H17          2.8650     1.6020     2.0820 hc         1 7G1       0.044200
     38 H18          3.0670     0.0710     2.9070 hc         1 7G1       0.044200
     39 H19          5.1670    -0.2920     1.7540 hc         1 7G1       0.045700
     40 H20          4.9840     1.3040     1.0190 hc         1 7G1       0.045700
     41 H21          5.8290    -0.3970    -0.9530 ho         1 7G1       0.440000
     42 H22          3.1990     2.3490    -0.1540 hc         1 7G1       0.035367
     43 H23          2.9870     1.8730    -1.8310 hc         1 7G1       0.035367
     44 H24          1.5840     2.1740    -0.8120 hc         1 7G1       0.035367
@<TRIPOS>BOND
     1     1     2 1   
     2     1     6 1   
     3     1    21 1   
     4     1    22 1   
     5     2     3 1   
     6     2     7 1   
     7     2    10 1   
     8     3     4 1   
     9     3    23 1   
    10     3    24 1   
    11     4     5 1   
    12     4    17 1   
    13     4    25 1   
    14     5     6 1   
    15     5    16 1   
    16     5    20 1   
    17     6    26 1   
    18     6    27 1   
    19     7     8 ar  
    20     7    11 ar  
    21     8     9 1   
    22     8    14 ar  
    23     9    10 1   
    24     9    28 1   
    25     9    29 1   
    26    10    30 1   
    27    10    31 1   
    28    11    12 ar  
    29    11    32 1   
    30    12    13 ar  
    31    12    33 1   
    32    13    14 ar  
    33    13    15 1   
    34    14    34 1   
    35    15    35 1   
    36    16    18 1   
    37    16    19 1   
    38    16    36 1   
    39    17    18 1   
    40    17    37 1   
    41    17    38 1   
    42    18    39 1   
    43    18    40 1   
    44    19    41 1   
    45    20    42 1   
    46    20    43 1   
    47    20    44 1   
@<TRIPOS>SUBSTRUCTURE
     1 7G1         1 TEMP              0 ****  ****    0 ROOT
