@<TRIPOS>MOLECULE
7G1
   44    47     1     0     0
SMALL
abcg2


@<TRIPOS>ATOM
      1 C01          0.2610    -0.2920    -1.3780 c6         1 7G1      -0.063400
      2 C02         -0.3380    -0.4750     0.0360 c5         1 7G1       0.006300
      3 C03          0.5160     0.2510     1.0890 c6         1 7G1      -0.047400
      4 C04          1.9740    -0.1380     0.9510 c5         1 7G1      -0.070700
      5 C05          2.5480     0.1880    -0.4340 c5         1 7G1      -0.040000
      6 C06          1.7590    -0.5990    -1.4750 c6         1 7G1      -0.058400
      7 C07         -1.7740    -0.0010     0.0280 ca         1 7G1      -0.120300
      8 C08         -2.6660    -1.0640    -0.0650 ca         1 7G1      -0.048300
      9 C09         -1.9170    -2.3650    -0.1220 c5         1 7G1      -0.036100
     10 C10         -0.5140    -1.9790     0.3680 c5         1 7G1      -0.072400
     11 C11         -2.2590     1.2960     0.0590 ca         1 7G1      -0.054000
     12 C12         -3.6300     1.5250     0.0130 ca         1 7G1      -0.210000
     13 C13         -4.5170     0.4530    -0.0710 ca         1 7G1       0.137100
     14 C14         -4.0330    -0.8550    -0.1150 ca         1 7G1      -0.134000
     15 O01         -5.8570     0.6250    -0.1110 oh         1 7G1      -0.536100
     16 C15          3.9940    -0.2620    -0.2120 c5         1 7G1       0.170300
     17 C16          2.9940     0.4510     1.9260 c5         1 7G1      -0.066400
     18 C17          4.3440     0.2850     1.1910 c5         1 7G1      -0.115400
     19 O02          4.8480     0.1710    -1.2440 oh         1 7G1      -0.651000
     20 C18          2.5090     1.6860    -0.7560 c3         1 7G1      -0.072100
     21 H1          -0.2870    -0.9240    -2.0840 hc         1 7G1       0.044200
     22 H2           0.0780     0.7360    -1.7060 hc         1 7G1       0.044200
     23 H3           0.4110     1.3360     0.9860 hc         1 7G1       0.044700
     24 H4           0.1420     0.0020     2.0870 hc         1 7G1       0.044700
     25 H5           2.0320    -1.2310     1.0560 hc         1 7G1       0.044700
     26 H6           1.9290    -1.6700    -1.3180 hc         1 7G1       0.043700
     27 H7           2.1090    -0.3780    -2.4880 hc         1 7G1       0.043700
     28 H8          -2.3740    -3.1490     0.4850 hc         1 7G1       0.053700
     29 H9          -1.8930    -2.7410    -1.1500 hc         1 7G1       0.053700
     30 H10          0.2630    -2.6070    -0.0690 hc         1 7G1       0.046200
     31 H11         -0.4630    -2.1140     1.4520 hc         1 7G1       0.046200
     32 H12         -1.5840     2.1420     0.1200 ha         1 7G1       0.114000
     33 H13         -4.0090     2.5410     0.0470 ha         1 7G1       0.111000
     34 H14         -4.7270    -1.6850    -0.1820 ha         1 7G1       0.129000
     35 H15         -6.0730     1.5630    -0.0740 ho         1 7G1       0.463000
     36 H16          3.9940    -1.3620    -0.1650 h1         1 7G1       0.026700
     37 H17          2.7790     1.5050     2.1190 hc         1 7G1       0.044200
     38 H18          2.9750    -0.0560     2.8910 hc         1 7G1       0.044200
     39 H19          5.0200    -0.3900     1.7190 hc         1 7G1       0.045700
     40 H20          4.8640     1.2410     1.0970 hc         1 7G1       0.045700
     41 H21          5.7370    -0.1370    -1.0460 ho         1 7G1       0.440000
     42 H22          3.0960     2.2840    -0.0580 hc         1 7G1       0.035367
     43 H23          2.9050     1.8720    -1.7550 hc         1 7G1       0.035367
     44 H24          1.4920     2.0790    -0.7400 hc         1 7G1       0.035367
@<TRIPOS>BOND
     1     1     2 1   
     2     1     6 1   
     3     1    21 1   
     4     1    22 1   
     5     2     3 1   
     6     2     7 1   
     7     2    10 1   
     8     3     4 1   
     9     3    23 1   
    10     3    24 1   
    11     4     5 1   
    12     4    17 1   
    13     4    25 1   
    14     5     6 1   
    15     5    16 1   
    16     5    20 1   
    17     6    26 1   
    18     6    27 1   
    19     7     8 ar  
    20     7    11 ar  
    21     8     9 1   
    22     8    14 ar  
    23     9    10 1   
    24     9    28 1   
    25     9    29 1   
    26    10    30 1   
    27    10    31 1   
    28    11    12 ar  
    29    11    32 1   
    30    12    13 ar  
    31    12    33 1   
    32    13    14 ar  
    33    13    15 1   
    34    14    34 1   
    35    15    35 1   
    36    16    18 1   
    37    16    19 1   
    38    16    36 1   
    39    17    18 1   
    40    17    37 1   
    41    17    38 1   
    42    18    39 1   
    43    18    40 1   
    44    19    41 1   
    45    20    42 1   
    46    20    43 1   
    47    20    44 1   
@<TRIPOS>SUBSTRUCTURE
     1 7G1         1 TEMP              0 ****  ****    0 ROOT
