@<TRIPOS>MOLECULE
7G2
   28    29     1     0     0
SMALL
No Charge or Current Charge


@<TRIPOS>ATOM
      1 O01          5.5730     0.1790    -0.0460 oh         1 7G2      -0.524100
      2 C02          4.2250    -0.0500    -0.0100 ca         1 7G2       0.113100
      3 C03          3.7110    -1.2550    -0.5120 ca         1 7G2      -0.127000
      4 C04          2.3270    -1.5010    -0.4790 ca         1 7G2      -0.080000
      5 C05          1.4230    -0.5470     0.0570 cp         1 7G2      -0.036000
      6 C06         -0.0500    -0.8110     0.0900 cp         1 7G2      -0.084000
      7 C07         -0.9870     0.2320    -0.1200 ca         1 7G2      -0.030000
      8 C08         -2.3800     0.0030    -0.0920 ca         1 7G2      -0.261900
      9 C09         -3.2810     1.1790    -0.3310 ce         1 7G2       0.461800
     10 N10         -4.5820     1.0780    -0.3310 n2         1 7G2      -0.400700
     11 O11         -5.2700     2.2840    -0.5720 oh         1 7G2      -0.497000
     12 C12         -2.8450    -1.3100     0.1550 ca         1 7G2       0.204100
     13 O13         -4.1740    -1.6020     0.1970 oh         1 7G2      -0.539100
     14 C14         -1.9340    -2.3530     0.3640 ca         1 7G2      -0.167000
     15 C15         -0.5520    -2.1120     0.3330 ca         1 7G2      -0.039000
     16 C16          1.9610     0.6660     0.5590 ca         1 7G2      -0.102000
     17 C17          3.3440     0.9100     0.5270 ca         1 7G2       0.071000
     18 F18          3.8250     2.0760     1.0190 f          1 7G2      -0.188000
     19 H1           5.7400     1.0640     0.3450 ho         1 7G2       0.478000
     20 H2           4.3850    -1.9990    -0.9300 ha         1 7G2       0.134000
     21 H3           1.9500    -2.4360    -0.8860 ha         1 7G2       0.122000
     22 H4          -0.6200     1.2360    -0.3220 ha         1 7G2       0.115000
     23 H5          -2.7890     2.1390    -0.5080 h4         1 7G2       0.012800
     24 H6          -6.2320     2.0570    -0.5430 ho         1 7G2       0.472000
     25 H7          -4.6550    -0.7580     0.0280 ho         1 7G2       0.508000
     26 H8          -2.3000    -3.3590     0.5560 ha         1 7G2       0.134000
     27 H9           0.1330    -2.9370     0.5120 ha         1 7G2       0.119000
     28 H10          1.3060     1.4170     0.9910 ha         1 7G2       0.132000
@<TRIPOS>BOND
     1     1     2 1   
     2     1    19 1   
     3     2     3 ar  
     4     2    17 ar  
     5     3     4 ar  
     6     3    20 1   
     7     4     5 ar  
     8     4    21 1   
     9     5     6 1   
    10     5    16 ar  
    11     6     7 ar  
    12     6    15 ar  
    13     7     8 ar  
    14     7    22 1   
    15     8     9 1   
    16     8    12 ar  
    17     9    10 2   
    18     9    23 1   
    19    10    11 1   
    20    11    24 1   
    21    12    13 1   
    22    12    14 ar  
    23    13    25 1   
    24    14    15 ar  
    25    14    26 1   
    26    15    27 1   
    27    16    17 ar  
    28    16    28 1   
    29    17    18 1   
@<TRIPOS>SUBSTRUCTURE
     1 7G2         1 TEMP              0 ****  ****    0 ROOT
