@<TRIPOS>MOLECULE
7G2
   28    29     1     0     0
SMALL
abcg2


@<TRIPOS>ATOM
      1 O01          5.5130     0.1390    -0.0350 oh         1 7G2      -0.524100
      2 C02          4.1830    -0.0530     0.0020 ca         1 7G2       0.113100
      3 C03          3.6520    -1.2400    -0.4890 ca         1 7G2      -0.127000
      4 C04          2.2860    -1.4680    -0.4630 ca         1 7G2      -0.080000
      5 C05          1.3990    -0.5260     0.0570 cp         1 7G2      -0.036000
      6 C06         -0.0540    -0.7760     0.0860 cp         1 7G2      -0.084000
      7 C07         -0.9700     0.2480    -0.1180 ca         1 7G2      -0.030000
      8 C08         -2.3480     0.0300    -0.0930 ca         1 7G2      -0.261900
      9 C09         -3.2310     1.1640    -0.3260 ce         1 7G2       0.461800
     10 N10         -4.4950     1.0160    -0.3150 n2         1 7G2      -0.400700
     11 O11         -5.1860     2.1610    -0.5460 oh         1 7G2      -0.497000
     12 C12         -2.8330    -1.2700     0.1430 ca         1 7G2       0.204100
     13 O13         -4.1360    -1.5600     0.1790 oh         1 7G2      -0.539100
     14 C14         -1.9210    -2.3030     0.3470 ca         1 7G2      -0.167000
     15 C15         -0.5620    -2.0580     0.3210 ca         1 7G2      -0.039000
     16 C16          1.9300     0.6660     0.5510 ca         1 7G2      -0.102000
     17 C17          3.2880     0.8810     0.5140 ca         1 7G2       0.071000
     18 F18          3.7910     2.0330     1.0020 f          1 7G2      -0.188000
     19 H1           5.7530     1.0040     0.3170 ho         1 7G2       0.478000
     20 H2           4.3200    -1.9840    -0.9050 ha         1 7G2       0.134000
     21 H3           1.9100    -2.3950    -0.8770 ha         1 7G2       0.122000
     22 H4          -0.6170     1.2520    -0.3250 ha         1 7G2       0.115000
     23 H5          -2.7730     2.1360    -0.5100 h4         1 7G2       0.012800
     24 H6          -6.1130     1.8990    -0.5090 ho         1 7G2       0.472000
     25 H7          -4.6560    -0.7450     0.0140 ho         1 7G2       0.508000
     26 H8          -2.2900    -3.3030     0.5380 ha         1 7G2       0.134000
     27 H9           0.1170    -2.8820     0.5040 ha         1 7G2       0.119000
     28 H10          1.2940     1.4260     0.9880 ha         1 7G2       0.132000
@<TRIPOS>BOND
     1     1     2 1   
     2     1    19 1   
     3     2     3 ar  
     4     2    17 ar  
     5     3     4 ar  
     6     3    20 1   
     7     4     5 ar  
     8     4    21 1   
     9     5     6 1   
    10     5    16 ar  
    11     6     7 ar  
    12     6    15 ar  
    13     7     8 ar  
    14     7    22 1   
    15     8     9 1   
    16     8    12 ar  
    17     9    10 2   
    18     9    23 1   
    19    10    11 1   
    20    11    24 1   
    21    12    13 1   
    22    12    14 ar  
    23    13    25 1   
    24    14    15 ar  
    25    14    26 1   
    26    15    27 1   
    27    16    17 ar  
    28    16    28 1   
    29    17    18 1   
@<TRIPOS>SUBSTRUCTURE
     1 7G2         1 TEMP              0 ****  ****    0 ROOT
