@<TRIPOS>MOLECULE
7G3
   28    29     1     0     0
SMALL
No Charge or Current Charge


@<TRIPOS>ATOM
      1 O01         16.3890    -0.6030     0.2680 oh         1 7G3      -0.537100
      2 C02         16.6940    -1.1920     1.4580 ca         1 7G3       0.134100
      3 C03         18.0020    -1.6360     1.6970 ca         1 7G3      -0.169000
      4 C04         18.3270    -2.2450     2.9220 ca         1 7G3      -0.065000
      5 C05         17.3490    -2.4220     3.9330 cp         1 7G3      -0.062000
      6 C06         17.6930    -3.0710     5.2390 cp         1 7G3      -0.065000
      7 C07         18.9550    -2.8670     5.8480 ca         1 7G3      -0.050000
      8 C08         19.3040    -3.4690     7.0780 ca         1 7G3      -0.190900
      9 C09         20.6660    -3.1520     7.6310 ce         1 7G3       0.438800
     10 N10         21.0590    -3.4540     8.8360 n2         1 7G3      -0.320700
     11 O11         22.3640    -3.0320     9.1600 oh         1 7G3      -0.511000
     12 C12         18.3490    -4.2990     7.7180 ca         1 7G3       0.174100
     13 O13         18.6110    -4.9250     8.9000 oh         1 7G3      -0.519100
     14 C14         17.0940    -4.5110     7.1270 ca         1 7G3      -0.207000
     15 C15         16.7670    -3.9060     5.9050 ca         1 7G3      -0.050000
     16 C16         16.0320    -1.9650     3.6680 ca         1 7G3      -0.065000
     17 C17         15.7080    -1.3550     2.4420 ca         1 7G3      -0.169000
     18 H1          15.4390    -0.3580     0.2770 ho         1 7G3       0.463000
     19 H2          18.7650    -1.5130     0.9330 ha         1 7G3       0.122000
     20 H3          19.3440    -2.5950     3.0810 ha         1 7G3       0.115000
     21 H4          19.6730    -2.2110     5.3600 ha         1 7G3       0.118000
     22 H5          21.3220    -2.5860     6.9640 h4         1 7G3       0.026800
     23 H6          22.5080    -3.3330    10.0900 ho         1 7G3       0.458000
     24 H7          17.8190    -5.4440     9.1550 ho         1 7G3       0.464000
     25 H8          16.3600    -5.1530     7.6100 ha         1 7G3       0.115000
     26 H9          15.7920    -4.1000     5.4630 ha         1 7G3       0.115000
     27 H10         15.2570    -2.0710     4.4230 ha         1 7G3       0.115000
     28 H11         14.6910    -1.0110     2.2680 ha         1 7G3       0.122000
@<TRIPOS>BOND
     1     1     2 1   
     2     1    18 1   
     3     2     3 ar  
     4     2    17 ar  
     5     3     4 ar  
     6     3    19 1   
     7     4     5 ar  
     8     4    20 1   
     9     5     6 1   
    10     5    16 ar  
    11     6     7 ar  
    12     6    15 ar  
    13     7     8 ar  
    14     7    21 1   
    15     8     9 1   
    16     8    12 ar  
    17     9    10 2   
    18     9    22 1   
    19    10    11 1   
    20    11    23 1   
    21    12    13 1   
    22    12    14 ar  
    23    13    24 1   
    24    14    15 ar  
    25    14    25 1   
    26    15    26 1   
    27    16    17 ar  
    28    16    27 1   
    29    17    28 1   
@<TRIPOS>SUBSTRUCTURE
     1 7G3         1 TEMP              0 ****  ****    0 ROOT
