@<TRIPOS>MOLECULE
7G3
   28    29     1     0     0
SMALL
abcg2


@<TRIPOS>ATOM
      1 O01         16.3670    -0.5270     0.4110 oh         1 7G3      -0.537100
      2 C02         16.6790    -1.1340     1.5940 ca         1 7G3       0.134100
      3 C03         17.9390    -1.7150     1.7160 ca         1 7G3      -0.169000
      4 C04         18.2980    -2.3460     2.8980 ca         1 7G3      -0.065000
      5 C05         17.4210    -2.4140     3.9880 cp         1 7G3      -0.062000
      6 C06         17.8080    -3.0900     5.2460 cp         1 7G3      -0.065000
      7 C07         19.1240    -3.0670     5.7080 ca         1 7G3      -0.050000
      8 C08         19.5120    -3.6790     6.9020 ca         1 7G3      -0.190900
      9 C09         20.9310    -3.5920     7.2960 ce         1 7G3       0.438800
     10 N10         21.4440    -3.1640     8.3820 n2         1 7G3      -0.320700
     11 O11         20.5000    -2.7190     9.3090 oh         1 7G3      -0.511000
     12 C12         18.5520    -4.3850     7.6410 ca         1 7G3       0.174100
     13 O13         18.9460    -5.0580     8.7530 oh         1 7G3      -0.519100
     14 C14         17.2320    -4.4200     7.1930 ca         1 7G3      -0.207000
     15 C15         16.8670    -3.7800     6.0210 ca         1 7G3      -0.050000
     16 C16         16.1620    -1.8210     3.8430 ca         1 7G3      -0.065000
     17 C17         15.7890    -1.1890     2.6650 ca         1 7G3      -0.169000
     18 H1          15.4710    -0.1680     0.4520 ho         1 7G3       0.463000
     19 H2          18.6250    -1.6770     0.8800 ha         1 7G3       0.122000
     20 H3          19.2740    -2.8090     2.9650 ha         1 7G3       0.115000
     21 H4          19.8790    -2.5330     5.1440 ha         1 7G3       0.118000
     22 H5          21.6740    -3.8770     6.5570 h4         1 7G3       0.026800
     23 H6          21.0420    -2.4190    10.0510 ho         1 7G3       0.458000
     24 H7          18.1890    -5.5180     9.1400 ho         1 7G3       0.464000
     25 H8          16.4970    -4.9750     7.7640 ha         1 7G3       0.115000
     26 H9          15.8390    -3.8430     5.6900 ha         1 7G3       0.115000
     27 H10         15.4630    -1.8340     4.6700 ha         1 7G3       0.115000
     28 H11         14.8110    -0.7290     2.5770 ha         1 7G3       0.122000
@<TRIPOS>BOND
     1     1     2 1   
     2     1    18 1   
     3     2     3 ar  
     4     2    17 ar  
     5     3     4 ar  
     6     3    19 1   
     7     4     5 ar  
     8     4    20 1   
     9     5     6 1   
    10     5    16 ar  
    11     6     7 ar  
    12     6    15 ar  
    13     7     8 ar  
    14     7    21 1   
    15     8     9 1   
    16     8    12 ar  
    17     9    10 2   
    18     9    22 1   
    19    10    11 1   
    20    11    23 1   
    21    12    13 1   
    22    12    14 ar  
    23    13    24 1   
    24    14    15 ar  
    25    14    25 1   
    26    15    26 1   
    27    16    17 ar  
    28    16    27 1   
    29    17    28 1   
@<TRIPOS>SUBSTRUCTURE
     1 7G3         1 TEMP              0 ****  ****    0 ROOT
