@<TRIPOS>MOLECULE
7G5
   35    37     1     0     0
SMALL
abcg2


@<TRIPOS>ATOM
      1 C01         -1.3030    -1.2940     0.7530 ca         1 7G5      -0.049750
      2 C02         -2.3910    -2.1400     0.8670 ca         1 7G5      -0.180250
      3 C03         -2.4920    -3.2660     0.0510 ca         1 7G5       0.149100
      4 O01         -3.5270    -4.1230     0.1170 oh         1 7G5      -0.530100
      5 C04         -1.4810    -3.5340    -0.8690 ca         1 7G5      -0.180250
      6 C05         -0.3950    -2.6810    -0.9680 ca         1 7G5      -0.049750
      7 C06         -0.2880    -1.5380    -0.1740 ca         1 7G5      -0.087800
      8 C07          0.8820    -0.6580    -0.2910 ce         1 7G5      -0.029400
      9 C08          2.2280    -1.2920    -0.5250 c5         1 7G5      -0.251700
     10 S01          3.3760    -0.0430     0.0770 s6         1 7G5       1.065000
     11 O02          3.5070    -0.1890     1.5240 o          1 7G5      -0.510500
     12 O03          4.5950     0.0250    -0.7230 o          1 7G5      -0.510500
     13 C09          2.2570     1.3220    -0.2710 c5         1 7G5      -0.251700
     14 C10          0.8970     0.6840    -0.1980 cf         1 7G5      -0.029400
     15 C11         -0.2720     1.5720    -0.1010 ca         1 7G5      -0.087800
     16 C12         -1.3420     1.4510    -0.9860 ca         1 7G5      -0.049750
     17 C13         -2.4380     2.2930    -0.9090 ca         1 7G5      -0.180250
     18 C14         -2.4870     3.2860     0.0680 ca         1 7G5       0.149100
     19 O04         -3.5250     4.1330     0.1950 oh         1 7G5      -0.530100
     20 C15         -1.4210     3.4260     0.9540 ca         1 7G5      -0.180250
     21 C16         -0.3280     2.5830     0.8590 ca         1 7G5      -0.049750
     22 H1          -1.2400    -0.4370     1.4100 ha         1 7G5       0.120000
     23 H2          -3.1590    -1.9280     1.6020 ha         1 7G5       0.124000
     24 H3          -4.1670    -3.8310     0.7760 ho         1 7G5       0.467000
     25 H4          -1.5450    -4.4100    -1.5010 ha         1 7G5       0.124000
     26 H5           0.3770    -2.9120    -1.6920 ha         1 7G5       0.120000
     27 H6           2.3900    -2.2190     0.0270 h1         1 7G5       0.116200
     28 H7           2.4360    -1.4650    -1.5830 h1         1 7G5       0.116200
     29 H8           2.4250     2.1160     0.4590 h1         1 7G5       0.116200
     30 H9           2.4780     1.7080    -1.2680 h1         1 7G5       0.116200
     31 H10         -1.3190     0.6910    -1.7560 ha         1 7G5       0.120000
     32 H11         -3.2520     2.1780    -1.6150 ha         1 7G5       0.124000
     33 H12         -4.2040     3.9380    -0.4610 ho         1 7G5       0.467000
     34 H13         -1.4510     4.1970     1.7140 ha         1 7G5       0.124000
     35 H14          0.4840     2.7080     1.5650 ha         1 7G5       0.120000
@<TRIPOS>BOND
     1     1     2 ar  
     2     1     7 ar  
     3     1    22 1   
     4     2     3 ar  
     5     2    23 1   
     6     3     4 1   
     7     3     5 ar  
     8     4    24 1   
     9     5     6 ar  
    10     5    25 1   
    11     6     7 ar  
    12     6    26 1   
    13     7     8 1   
    14     8     9 1   
    15     8    14 2   
    16     9    10 1   
    17     9    27 1   
    18     9    28 1   
    19    10    11 2   
    20    10    12 2   
    21    10    13 1   
    22    13    14 1   
    23    13    29 1   
    24    13    30 1   
    25    14    15 1   
    26    15    16 ar  
    27    15    21 ar  
    28    16    17 ar  
    29    16    31 1   
    30    17    18 ar  
    31    17    32 1   
    32    18    19 1   
    33    18    20 ar  
    34    19    33 1   
    35    20    21 ar  
    36    20    34 1   
    37    21    35 1   
@<TRIPOS>SUBSTRUCTURE
     1 7G5         1 TEMP              0 ****  ****    0 ROOT
