@<TRIPOS>MOLECULE
7G5
   35    37     1     0     0
SMALL
No Charge or Current Charge


@<TRIPOS>ATOM
      1 C01         -1.2850    -1.3900     0.7840 ca         1 7G5      -0.049750
      2 C02         -2.3910    -2.2550     0.8660 ca         1 7G5      -0.180250
      3 C03         -2.5170    -3.3190    -0.0400 ca         1 7G5       0.149100
      4 O01         -3.5850    -4.1620     0.0320 oh         1 7G5      -0.530100
      5 C04         -1.5390    -3.5220    -1.0240 ca         1 7G5      -0.180250
      6 C05         -0.4330    -2.6580    -1.1080 ca         1 7G5      -0.049750
      7 C06         -0.3030    -1.5820    -0.2080 ca         1 7G5      -0.087800
      8 C07          0.8730    -0.6710    -0.2940 ce         1 7G5      -0.029400
      9 C08          2.2750    -1.2860    -0.4640 c5         1 7G5      -0.251700
     10 S01          3.4610    -0.0570     0.2200 s6         1 7G5       1.065000
     11 O02          3.5520    -0.1920     1.6800 o          1 7G5      -0.510500
     12 O03          4.6770     0.0130    -0.6010 o          1 7G5      -0.510500
     13 C09          2.2990     1.2730    -0.2220 c5         1 7G5      -0.251700
     14 C10          0.8660     0.7010    -0.1830 cf         1 7G5      -0.029400
     15 C11         -0.2900     1.6200    -0.0910 ca         1 7G5      -0.087800
     16 C12         -1.4630     1.3630    -0.8330 ca         1 7G5      -0.049750
     17 C13         -2.5650     2.2340    -0.7550 ca         1 7G5      -0.180250
     18 C14         -2.5030     3.3720     0.0630 ca         1 7G5       0.149100
     19 O04         -3.5650     4.2200     0.1440 oh         1 7G5      -0.530100
     20 C15         -1.3420     3.6410     0.7990 ca         1 7G5      -0.180250
     21 C16         -0.2380     2.7730     0.7220 ca         1 7G5      -0.049750
     22 H1          -1.1900    -0.5720     1.4940 ha         1 7G5       0.120000
     23 H2          -3.1420    -2.0920     1.6350 ha         1 7G5       0.124000
     24 H3          -4.1590    -3.8730     0.7730 ho         1 7G5       0.467000
     25 H4          -1.6360    -4.3480    -1.7240 ha         1 7G5       0.124000
     26 H5           0.3190    -2.8220    -1.8770 ha         1 7G5       0.120000
     27 H6           2.4220    -2.2170     0.0930 h1         1 7G5       0.116200
     28 H7           2.5490    -1.4300    -1.5150 h1         1 7G5       0.116200
     29 H8           2.4820     2.0830     0.4910 h1         1 7G5       0.116200
     30 H9           2.5800     1.6040    -1.2280 h1         1 7G5       0.116200
     31 H10         -1.5190     0.4930    -1.4820 ha         1 7G5       0.120000
     32 H11         -3.4590     2.0170    -1.3350 ha         1 7G5       0.124000
     33 H12         -4.2810     3.8770    -0.4330 ho         1 7G5       0.467000
     34 H13         -1.2940     4.5220     1.4330 ha         1 7G5       0.124000
     35 H14          0.6480     2.9940     1.3120 ha         1 7G5       0.120000
@<TRIPOS>BOND
     1     1     2 ar  
     2     1     7 ar  
     3     1    22 1   
     4     2     3 ar  
     5     2    23 1   
     6     3     4 1   
     7     3     5 ar  
     8     4    24 1   
     9     5     6 ar  
    10     5    25 1   
    11     6     7 ar  
    12     6    26 1   
    13     7     8 1   
    14     8     9 1   
    15     8    14 2   
    16     9    10 1   
    17     9    27 1   
    18     9    28 1   
    19    10    11 2   
    20    10    12 2   
    21    10    13 1   
    22    13    14 1   
    23    13    29 1   
    24    13    30 1   
    25    14    15 1   
    26    15    16 ar  
    27    15    21 ar  
    28    16    17 ar  
    29    16    31 1   
    30    17    18 ar  
    31    17    32 1   
    32    18    19 1   
    33    18    20 ar  
    34    19    33 1   
    35    20    21 ar  
    36    20    34 1   
    37    21    35 1   
@<TRIPOS>SUBSTRUCTURE
     1 7G5         1 TEMP              0 ****  ****    0 ROOT
