@<TRIPOS>MOLECULE
7G6
   80    86     1     0     0
SMALL
No Charge or Current Charge


@<TRIPOS>ATOM
      1 C1          -7.8890     2.3910    -0.8510 ca         1 7G6      -0.195000
      2 C2          -7.9460     2.8400     0.4810 ca         1 7G6       0.026700
      3 C3          -7.1300     2.2120     1.4370 ca         1 7G6      -0.147000
      4 C7          -5.4480     0.5410     2.1180 cc         1 7G6      -0.284200
      5 C8          -4.6040    -0.4910     1.7670 cd         1 7G6      -0.003400
      6 C10         -5.2910    -0.4250    -0.6040 c          1 7G6       0.579600
      7 C11         -3.6210    -2.0560     0.3430 ca         1 7G6       0.045600
      8 C13         -8.8540     3.9720     0.9000 cx         1 7G6      -0.103400
      9 C15         -9.1260     5.1640     0.0070 cx         1 7G6      -0.115900
     10 C16        -10.2270     4.1730     0.2950 cx         1 7G6      -0.115900
     11 C19         -1.9600    -4.2950     0.0720 ca         1 7G6      -0.103000
     12 C20         -3.3390    -4.4660     0.2470 ca         1 7G6      -0.097000
     13 C21         -4.1660    -3.3490     0.3850 ca         1 7G6      -0.093000
     14 C24          0.0950    -2.9270    -0.1180 cc         1 7G6      -0.131200
     15 N26          2.0000    -3.7720    -1.3810 n          1 7G6      -0.266000
     16 C27          2.9150    -2.8890    -0.7580 c          1 7G6       0.534200
     17 C31          4.1920    -0.2490     0.5940 ca         1 7G6       0.607900
     18 C33          5.8730     1.0280     1.4940 ca         1 7G6       0.331900
     19 C34          6.4130     1.3610     0.2150 ca         1 7G6       0.180000
     20 C35          5.7490     0.8340    -0.9110 ca         1 7G6      -0.069000
     21 C4          -7.0370     1.3380    -1.2150 ca         1 7G6       0.246000
     22 C5          -6.2180     0.7080    -0.2520 ca         1 7G6      -0.222600
     23 C6          -6.2720     1.1560     1.0830 ca         1 7G6       0.051200
     24 N9          -4.5270    -0.9470     0.4530 n          1 7G6      -0.223200
     25 O12         -5.1900    -0.8830    -1.7350 o          1 7G6      -0.523000
     26 F14         -7.0280     0.9530    -2.5100 f          1 7G6      -0.154000
     27 C17         -2.2240    -1.8650     0.1680 ca         1 7G6      -0.053300
     28 C18         -1.3740    -3.0080     0.0400 ca         1 7G6      -0.007800
     29 O23         -1.5030     0.2060     1.2690 oh         1 7G6      -0.666000
     30 C25          0.6390    -3.7680    -1.0730 cd         1 7G6      -0.033400
     31 C28          2.3010    -1.9200     0.2350 cd         1 7G6       0.024800
     32 C29          0.9550    -1.9720     0.5250 cc         1 7G6      -0.130000
     33 N30          3.0800    -0.9850     0.9170 nu         1 7G6      -0.816900
     34 N32          4.7770     0.2480     1.6850 nb         1 7G6      -0.726000
     35 C36          4.6150     0.0250    -0.7160 ca         1 7G6      -0.176000
     36 N37          7.5690     2.1830     0.0480 nh         1 7G6      -0.771400
     37 C38          8.5370     2.3860     1.1760 c6         1 7G6       0.190300
     38 C39          9.9440     2.8630     0.6880 c6         1 7G6       0.159300
     39 N40          9.8750     4.0700    -0.1890 n3         1 7G6      -0.715600
     40 C41          8.9650     3.8030    -1.3440 c6         1 7G6       0.159300
     41 C42          7.5370     3.3480    -0.8980 c6         1 7G6       0.190300
     42 C43         11.2090     4.5450    -0.6130 c3         1 7G6       0.152100
     43 C44          2.5270    -4.7260    -2.3850 c3         1 7G6       0.076300
     44 O45          4.1160    -2.9380    -1.0090 o          1 7G6      -0.535000
     45 H1          -8.5040     2.8520    -1.6180 ha         1 7G6       0.134000
     46 H2          -7.1610     2.5470     2.4710 ha         1 7G6       0.121000
     47 H3          -5.4830     0.8800     3.1510 ha         1 7G6       0.202000
     48 H4          -3.9460    -1.0040     2.4660 h4         1 7G6       0.214000
     49 H5          -8.7720     4.1890     1.9620 hc         1 7G6       0.084700
     50 H6          -9.1890     6.1420     0.4780 hc         1 7G6       0.075950
     51 H7          -8.6960     5.1720    -0.9910 hc         1 7G6       0.075950
     52 H8         -10.5400     3.5110    -0.5090 hc         1 7G6       0.075950
     53 H9         -11.0300     4.4860     0.9590 hc         1 7G6       0.075950
     54 H10         -1.3380    -5.1840    -0.0000 ha         1 7G6       0.117000
     55 H11         -3.7640    -5.4670     0.2810 ha         1 7G6       0.121000
     56 H12         -5.2370    -3.4840     0.5170 ha         1 7G6       0.129000
     57 H13         -0.7700    -0.4330    -0.5860 h1         1 7G6       0.039200
     58 H14         -2.4200     0.1430    -0.6000 h1         1 7G6       0.039200
     59 H15          6.3300     1.4120     2.4050 h4         1 7G6       0.015100
     60 H16          6.1050     1.0390    -1.9160 ha         1 7G6       0.118000
     61 H17         -1.2570     1.1390     1.0840 ho         1 7G6       0.448000
     62 H18          0.0600    -4.4730    -1.6630 h4         1 7G6       0.206000
     63 H19          0.5350    -1.3050     1.2690 ha         1 7G6       0.209000
     64 H20          2.8040    -0.7940     1.8770 hn         1 7G6       0.510000
     65 H21          4.0720    -0.3730    -1.5660 ha         1 7G6       0.123000
     66 H22          8.1360     3.1340     1.8770 h1         1 7G6       0.042200
     67 H23          8.6690     1.4490     1.7360 h1         1 7G6       0.042200
     68 H24         10.5670     3.0680     1.5700 h1         1 7G6       0.039200
     69 H25         10.4210     2.0330     0.1460 h1         1 7G6       0.039200
     70 H27          8.8640     4.7050    -1.9650 h1         1 7G6       0.039200
     71 H28          9.3930     3.0200    -1.9870 h1         1 7G6       0.039200
     72 H29          6.9600     3.1060    -1.8010 h1         1 7G6       0.042200
     73 H30          7.0340     4.1970    -0.4140 h1         1 7G6       0.042200
     74 H31         11.7240     3.7830    -1.2140 h1         1 7G6       0.030700
     75 H32         11.1220     5.4580    -1.2160 h1         1 7G6       0.030700
     76 H33         11.8340     4.7740     0.2610 h1         1 7G6       0.030700
     77 H34          3.0120    -4.1740    -3.2000 h1         1 7G6       0.056033
     78 H35          3.2630    -5.3900    -1.9130 h1         1 7G6       0.056033
     79 H36          1.7200    -5.3390    -2.8060 h1         1 7G6       0.056033
     80 C22         -1.7000    -0.4310    -0.0030 c3         1 7G6       0.202900
@<TRIPOS>BOND
     1     1     2 ar  
     2     1    21 ar  
     3     1    45 1   
     4     2     3 ar  
     5     2     8 1   
     6     3    23 ar  
     7     3    46 1   
     8     4     5 2   
     9     4    23 1   
    10     4    47 1   
    11     5    24 1   
    12     5    48 1   
    13     6    22 1   
    14     6    24 1   
    15     6    25 2   
    16     7    13 ar  
    17     7    24 1   
    18     7    27 ar  
    19     8     9 1   
    20     8    10 1   
    21     8    49 1   
    22     9    10 1   
    23     9    50 1   
    24     9    51 1   
    25    10    52 1   
    26    10    53 1   
    27    11    12 ar  
    28    11    28 ar  
    29    11    54 1   
    30    12    13 ar  
    31    12    55 1   
    32    13    56 1   
    33    14    28 1   
    34    14    30 2   
    35    14    32 1   
    36    15    16 1   
    37    15    30 1   
    38    15    43 1   
    39    16    31 1   
    40    16    44 2   
    41    17    33 1   
    42    17    34 ar  
    43    17    35 ar  
    44    18    19 ar  
    45    18    34 ar  
    46    18    59 1   
    47    19    20 ar  
    48    19    36 1   
    49    20    35 ar  
    50    20    60 1   
    51    21    22 ar  
    52    21    26 1   
    53    22    23 ar  
    54    27    28 ar  
    55    27    80 1   
    56    29    61 1   
    57    29    80 1   
    58    30    62 1   
    59    31    32 2   
    60    31    33 1   
    61    32    63 1   
    62    33    64 1   
    63    35    65 1   
    64    36    37 1   
    65    36    41 1   
    66    37    38 1   
    67    37    66 1   
    68    37    67 1   
    69    38    39 1   
    70    38    68 1   
    71    38    69 1   
    72    39    40 1   
    73    39    42 1   
    74    40    41 1   
    75    40    70 1   
    76    40    71 1   
    77    41    72 1   
    78    41    73 1   
    79    42    74 1   
    80    42    75 1   
    81    42    76 1   
    82    43    77 1   
    83    43    78 1   
    84    43    79 1   
    85    57    80 1   
    86    58    80 1   
@<TRIPOS>SUBSTRUCTURE
     1 7G6         1 TEMP              0 ****  ****    0 ROOT
