@<TRIPOS>MOLECULE
7G6
   80    86     1     0     0
SMALL
abcg2


@<TRIPOS>ATOM
      1 C1          -7.5220     2.3890    -0.9720 ca         1 7G6      -0.195000
      2 C2          -7.5970     2.9610     0.3070 ca         1 7G6       0.026700
      3 C3          -6.8050     2.4390     1.3130 ca         1 7G6      -0.147000
      4 C7          -5.1380     0.8190     2.1310 cc         1 7G6      -0.284200
      5 C8          -4.3370    -0.2280     1.8810 cd         1 7G6      -0.003400
      6 C10         -4.9940    -0.3670    -0.4580 c          1 7G6       0.579600
      7 C11         -3.4480    -1.9660     0.4700 ca         1 7G6       0.045600
      8 C13         -8.5040     4.0890     0.5980 cx         1 7G6      -0.103400
      9 C15         -8.8050     5.1400    -0.4390 cx         1 7G6      -0.115900
     10 C16         -9.8630     4.1680    -0.0520 cx         1 7G6      -0.115900
     11 C19         -1.9040    -4.2250     0.2160 ca         1 7G6      -0.103000
     12 C20         -3.2580    -4.3480     0.4790 ca         1 7G6      -0.097000
     13 C21         -4.0360    -3.2110     0.6150 ca         1 7G6      -0.093000
     14 C24          0.1470    -2.9120    -0.1920 cc         1 7G6      -0.131200
     15 N26          2.0130    -3.6160    -1.4850 n          1 7G6      -0.266000
     16 C27          2.9450    -2.9770    -0.6860 c          1 7G6       0.534200
     17 C31          4.2560    -0.6820     0.8980 ca         1 7G6       0.607900
     18 C33          6.1180     0.4900     1.5400 ca         1 7G6       0.331900
     19 C34          6.2760     1.1050     0.3040 ca         1 7G6       0.180000
     20 C35          5.3070     0.7890    -0.6610 ca         1 7G6      -0.069000
     21 C4          -6.6810     1.3310    -1.1990 ca         1 7G6       0.246000
     22 C5          -5.8710     0.7730    -0.2000 ca         1 7G6      -0.222600
     23 C6          -5.9470     1.3580     1.0810 ca         1 7G6       0.051200
     24 N9          -4.2710    -0.8080     0.6390 n          1 7G6      -0.223200
     25 O12         -4.8640    -0.9300    -1.5330 o          1 7G6      -0.523000
     26 F14         -6.6550     0.8270    -2.4340 f          1 7G6      -0.154000
     27 C17         -2.0930    -1.8170     0.1810 ca         1 7G6      -0.053300
     28 C18         -1.3060    -2.9730     0.0730 ca         1 7G6      -0.007800
     29 O23         -1.2490     0.0920     1.2860 oh         1 7G6      -0.666000
     30 C25          0.6810    -3.6000    -1.2360 cd         1 7G6      -0.033400
     31 C28          2.3850    -2.2000     0.4060 cd         1 7G6       0.024800
     32 C29          1.0410    -2.1810     0.6300 cc         1 7G6      -0.130000
     33 N30          3.2740    -1.5700     1.2690 nu         1 7G6      -0.816900
     34 N32          5.1540    -0.3850     1.8220 nb         1 7G6      -0.726000
     35 C36          4.2880    -0.0860    -0.3720 ca         1 7G6      -0.176000
     36 N37          7.3350     1.9670    -0.0100 nh         1 7G6      -0.771400
     37 C38          8.4310     2.0430     0.9340 c6         1 7G6       0.190300
     38 C39          9.6150     2.7470     0.2990 c6         1 7G6       0.159300
     39 N40          9.2460     4.0720    -0.1570 n3         1 7G6      -0.715600
     40 C41          8.1560     3.9850    -1.1060 c6         1 7G6       0.159300
     41 C42          6.9600     3.2900    -0.4890 c6         1 7G6       0.190300
     42 C43         10.3780     4.7790    -0.7110 c3         1 7G6       0.152100
     43 C44          2.5270    -4.3880    -2.6090 c3         1 7G6       0.076300
     44 O45          4.1430    -3.0840    -0.9190 o          1 7G6      -0.535000
     45 H1          -8.1190     2.7650    -1.7930 ha         1 7G6       0.134000
     46 H2          -6.8460     2.8660     2.3080 ha         1 7G6       0.121000
     47 H3          -5.1710     1.2480     3.1220 ha         1 7G6       0.202000
     48 H4          -3.7120    -0.6780     2.6370 h4         1 7G6       0.214000
     49 H5          -8.4520     4.4390     1.6220 hc         1 7G6       0.084700
     50 H6          -8.8890     6.1620    -0.0930 hc         1 7G6       0.075950
     51 H7          -8.3430     5.0380    -1.4140 hc         1 7G6       0.075950
     52 H8         -10.1250     3.3890    -0.7570 hc         1 7G6       0.075950
     53 H9         -10.6860     4.5110     0.5610 hc         1 7G6       0.075950
     54 H10         -1.2910    -5.1150     0.1420 ha         1 7G6       0.117000
     55 H11         -3.7020    -5.3270     0.5940 ha         1 7G6       0.121000
     56 H12         -5.0930    -3.2870     0.8350 ha         1 7G6       0.129000
     57 H13         -0.6090    -0.4980    -0.6060 h1         1 7G6       0.039200
     58 H14         -2.2220     0.1860    -0.5480 h1         1 7G6       0.039200
     59 H15          6.8040     0.6940     2.3540 h4         1 7G6       0.015100
     60 H16          5.3540     1.2350    -1.6470 ha         1 7G6       0.118000
     61 H17         -0.9560     1.0020     1.1730 ho         1 7G6       0.448000
     62 H18          0.0660    -4.1650    -1.9230 h4         1 7G6       0.206000
     63 H19          0.6530    -1.6060     1.4620 ha         1 7G6       0.209000
     64 H20          3.1560    -1.7110     2.2600 hn         1 7G6       0.510000
     65 H21          3.5280    -0.2940    -1.1120 ha         1 7G6       0.123000
     66 H22          8.1470     2.5740     1.8560 h1         1 7G6       0.042200
     67 H23          8.7360     1.0340     1.2190 h1         1 7G6       0.042200
     68 H24         10.4120     2.8320     1.0410 h1         1 7G6       0.039200
     69 H25         10.0030     2.1250    -0.5260 h1         1 7G6       0.039200
     70 H27          7.8620     4.9930    -1.4080 h1         1 7G6       0.039200
     71 H28          8.4550     3.4450    -2.0220 h1         1 7G6       0.039200
     72 H29          6.1780     3.2050    -1.2430 h1         1 7G6       0.042200
     73 H30          6.5600     3.9050     0.3310 h1         1 7G6       0.042200
     74 H31         10.8010     4.2860    -1.6000 h1         1 7G6       0.030700
     75 H32         10.0830     5.7890    -0.9990 h1         1 7G6       0.030700
     76 H33         11.1710     4.8620     0.0330 h1         1 7G6       0.030700
     77 H34          3.1020    -3.7500    -3.2760 h1         1 7G6       0.056033
     78 H35          3.1660    -5.1970    -2.2600 h1         1 7G6       0.056033
     79 H36          1.6920    -4.8110    -3.1580 h1         1 7G6       0.056033
     80 C22         -1.5150    -0.4420     0.0060 c3         1 7G6       0.202900
@<TRIPOS>BOND
     1     1     2 ar  
     2     1    21 ar  
     3     1    45 1   
     4     2     3 ar  
     5     2     8 1   
     6     3    23 ar  
     7     3    46 1   
     8     4     5 2   
     9     4    23 1   
    10     4    47 1   
    11     5    24 1   
    12     5    48 1   
    13     6    22 1   
    14     6    24 1   
    15     6    25 2   
    16     7    13 ar  
    17     7    24 1   
    18     7    27 ar  
    19     8     9 1   
    20     8    10 1   
    21     8    49 1   
    22     9    10 1   
    23     9    50 1   
    24     9    51 1   
    25    10    52 1   
    26    10    53 1   
    27    11    12 ar  
    28    11    28 ar  
    29    11    54 1   
    30    12    13 ar  
    31    12    55 1   
    32    13    56 1   
    33    14    28 1   
    34    14    30 2   
    35    14    32 1   
    36    15    16 1   
    37    15    30 1   
    38    15    43 1   
    39    16    31 1   
    40    16    44 2   
    41    17    33 1   
    42    17    34 ar  
    43    17    35 ar  
    44    18    19 ar  
    45    18    34 ar  
    46    18    59 1   
    47    19    20 ar  
    48    19    36 1   
    49    20    35 ar  
    50    20    60 1   
    51    21    22 ar  
    52    21    26 1   
    53    22    23 ar  
    54    27    28 ar  
    55    27    80 1   
    56    29    61 1   
    57    29    80 1   
    58    30    62 1   
    59    31    32 2   
    60    31    33 1   
    61    32    63 1   
    62    33    64 1   
    63    35    65 1   
    64    36    37 1   
    65    36    41 1   
    66    37    38 1   
    67    37    66 1   
    68    37    67 1   
    69    38    39 1   
    70    38    68 1   
    71    38    69 1   
    72    39    40 1   
    73    39    42 1   
    74    40    41 1   
    75    40    70 1   
    76    40    71 1   
    77    41    72 1   
    78    41    73 1   
    79    42    74 1   
    80    42    75 1   
    81    42    76 1   
    82    43    77 1   
    83    43    78 1   
    84    43    79 1   
    85    57    80 1   
    86    58    80 1   
@<TRIPOS>SUBSTRUCTURE
     1 7G6         1 TEMP              0 ****  ****    0 ROOT
