@<TRIPOS>MOLECULE
7G7
   83    88     1     0     0
SMALL
abcg2


@<TRIPOS>ATOM
      1 C1          -0.7480     0.6060     2.1550 ca         1 7G7      -0.051900
      2 C2          -0.8810     1.6840     3.0250 ca         1 7G7      -0.153000
      3 C3          -2.1270     2.2510     3.2140 ca         1 7G7       0.355900
      4 C9           0.5890    -0.0070     1.9990 cc         1 7G7       0.409200
      5 C11         -4.7300     1.0310     0.0220 c          1 7G7       0.576600
      6 C12         -5.9940     0.5280    -0.5080 ca         1 7G7      -0.196600
      7 C13         -6.6290    -0.5510     0.1250 ca         1 7G7      -0.092900
      8 C14         -5.9960    -1.0950     1.2940 cc         1 7G7       0.353800
      9 C16         -6.6230     1.0560    -1.6330 ca         1 7G7       0.240000
     10 C19         -7.8260    -1.0670    -0.3580 ca         1 7G7      -0.125000
     11 C24        -10.2710    -0.3950    -3.2330 c3         1 7G7      -0.084767
     12 N26          0.6490    -1.3010     2.0540 nd         1 7G7      -0.415300
     13 C30          1.7370     0.8010     1.8120 cc         1 7G7      -0.328600
     14 C34          5.1780     0.6280     0.7350 ca         1 7G7       0.603900
     15 C35          5.0370    -0.2040    -0.3760 ca         1 7G7      -0.179000
     16 N4          -3.2150     1.8110     2.5980 nb         1 7G7      -0.649000
     17 C5          -3.0760     0.8020     1.7640 ca         1 7G7       0.490900
     18 C6          -1.8810     0.1520     1.4690 ca         1 7G7      -0.072300
     19 O8          -2.1960    -2.1650     1.0920 oh         1 7G7      -0.637000
     20 N10         -4.2870     0.3610     1.1440 n          1 7G7      -0.167300
     21 N15         -4.8930    -0.6590     1.7730 nd         1 7G7      -0.372300
     22 C17         -7.8100     0.5510    -2.1140 ca         1 7G7      -0.170000
     23 C18         -8.4370    -0.5280    -1.4830 ca         1 7G7      -0.003300
     24 F21         -6.0780     2.0830    -2.2830 f          1 7G7      -0.148000
     25 C23        -10.8040    -1.0200    -0.8870 c3         1 7G7      -0.084767
     26 C25         -9.5130    -2.5920    -2.3520 c3         1 7G7      -0.084767
     27 N27          1.8350    -1.8810     1.9520 n          1 7G7      -0.118800
     28 C28          3.0470    -1.2450     1.8410 c          1 7G7       0.516200
     29 C29          2.9560     0.2070     1.7020 cd         1 7G7       0.091800
     30 O32          4.0960    -1.8720     1.8710 o          1 7G7      -0.524000
     31 N33          4.1210     0.9210     1.5880 nu         1 7G7      -0.797900
     32 C36          6.1490    -0.4270    -1.1630 ca         1 7G7      -0.046000
     33 C37          7.3640     0.1870    -0.8680 ca         1 7G7      -0.153300
     34 C38          7.3680     1.0260     0.2380 ca         1 7G7       0.377900
     35 N39          6.3180     1.2390     1.0220 nb         1 7G7      -0.716000
     36 C40          8.5960    -0.0510    -1.6980 c6         1 7G7      -0.006400
     37 C41          9.2220     1.2420    -2.2240 c6         1 7G7      -0.071400
     38 C42         10.4790     0.9480    -3.0270 c6         1 7G7       0.167300
     39 N43         11.4450     0.2030    -2.2430 n3         1 7G7      -0.717600
     40 C44         10.8960    -1.0590    -1.7870 c6         1 7G7       0.167300
     41 C45          9.6560    -0.8470    -0.9330 c6         1 7G7      -0.071400
     42 C46         12.6810     0.0120    -2.9660 c3         1 7G7       0.154100
     43 H1          -0.0300     2.0660     3.5710 ha         1 7G7       0.130000
     44 H2          -2.2530     3.0840     3.8950 h4         1 7G7       0.028100
     45 H3          -2.5380    -0.7220    -0.3600 h1         1 7G7       0.029200
     46 H4          -0.8500    -1.0050     0.0070 h1         1 7G7       0.029200
     47 H5          -6.4560    -1.9180     1.8270 h4         1 7G7       0.047800
     48 H6          -8.2710    -1.9020     0.1690 ha         1 7G7       0.125000
     49 H7         -10.4740     0.6600    -3.0400 hc         1 7G7       0.039256
     50 H8          -9.5780    -0.4610    -4.0740 hc         1 7G7       0.039256
     51 H9         -11.2080    -0.8570    -3.5460 hc         1 7G7       0.039256
     52 H10          1.6390     1.8760     1.7350 ha         1 7G7       0.203000
     53 H11          0.7980    -3.6570     2.0590 h1         1 7G7       0.060367
     54 H12          2.3710    -3.7830     1.2450 h1         1 7G7       0.060367
     55 H13          2.2980    -3.6420     3.0090 h1         1 7G7       0.060367
     56 H14          4.0830    -0.6380    -0.6410 ha         1 7G7       0.125000
     57 H15         -2.0490    -2.8790     0.4650 ho         1 7G7       0.439000
     58 H16         -8.2380     1.0150    -2.9910 ha         1 7G7       0.139000
     59 H17        -10.5070    -1.5560     0.0150 hc         1 7G7       0.039256
     60 H18        -10.9940     0.0190    -0.6110 hc         1 7G7       0.039256
     61 H19        -11.7430    -1.4530    -1.2330 hc         1 7G7       0.039256
     62 H20        -10.4400    -3.0400    -2.7140 hc         1 7G7       0.039256
     63 H21         -8.7610    -2.6950    -3.1360 hc         1 7G7       0.039256
     64 H22         -9.1810    -3.1760    -1.4930 hc         1 7G7       0.039256
     65 H23          4.1150     1.8610     1.9560 hn         1 7G7       0.508000
     66 H24          6.0670    -1.0730    -2.0300 ha         1 7G7       0.117000
     67 H25          8.2730     1.5590     0.5170 h4         1 7G7       0.023100
     68 H26          8.2980    -0.6500    -2.5670 hc         1 7G7       0.046700
     69 H27          8.5070     1.7800    -2.8510 hc         1 7G7       0.050700
     70 H28          9.4760     1.9040    -1.3900 hc         1 7G7       0.050700
     71 H29         10.2000     0.4030    -3.9480 h1         1 7G7       0.030200
     72 H30         10.9380     1.8860    -3.3480 h1         1 7G7       0.030200
     73 H32         10.6440    -1.7210    -2.6350 h1         1 7G7       0.030200
     74 H33         11.6590    -1.5810    -1.2030 h1         1 7G7       0.030200
     75 H34          9.9320    -0.3130    -0.0180 hc         1 7G7       0.050700
     76 H35          9.2540    -1.8160    -0.6290 hc         1 7G7       0.050700
     77 H36         12.5630    -0.5870    -3.8830 h1         1 7G7       0.029700
     78 H37         13.1000     0.9780    -3.2550 h1         1 7G7       0.029700
     79 H38         13.4120    -0.4930    -2.3320 h1         1 7G7       0.029700
     80 C7          -1.8460    -0.9600     0.4560 c3         1 7G7       0.219900
     81 C31          1.8320    -3.3310     2.0750 c3         1 7G7       0.095300
     82 O20         -4.0710     1.9440    -0.4430 o          1 7G7      -0.510000
     83 C22         -9.7450    -1.1180    -1.9930 c3         1 7G7      -0.006700
@<TRIPOS>BOND
     1     1     2 ar  
     2     1     4 1   
     3     1    18 ar  
     4     2     3 ar  
     5     2    43 1   
     6     3    16 ar  
     7     3    44 1   
     8     4    12 2   
     9     4    13 1   
    10     5     6 1   
    11     5    20 1   
    12     5    82 2   
    13     6     7 ar  
    14     6     9 ar  
    15     7     8 1   
    16     7    10 ar  
    17     8    21 2   
    18     8    47 1   
    19     9    22 ar  
    20     9    24 1   
    21    10    23 ar  
    22    10    48 1   
    23    11    49 1   
    24    11    50 1   
    25    11    51 1   
    26    11    83 1   
    27    12    27 1   
    28    13    29 2   
    29    13    52 1   
    30    14    15 ar  
    31    14    31 1   
    32    14    35 ar  
    33    15    32 ar  
    34    15    56 1   
    35    16    17 ar  
    36    17    18 ar  
    37    17    20 1   
    38    18    80 1   
    39    19    57 1   
    40    19    80 1   
    41    20    21 1   
    42    22    23 ar  
    43    22    58 1   
    44    23    83 1   
    45    25    59 1   
    46    25    60 1   
    47    25    61 1   
    48    25    83 1   
    49    26    62 1   
    50    26    63 1   
    51    26    64 1   
    52    26    83 1   
    53    27    28 1   
    54    27    81 1   
    55    28    29 1   
    56    28    30 2   
    57    29    31 1   
    58    31    65 1   
    59    32    33 ar  
    60    32    66 1   
    61    33    34 ar  
    62    33    36 1   
    63    34    35 ar  
    64    34    67 1   
    65    36    37 1   
    66    36    41 1   
    67    36    68 1   
    68    37    38 1   
    69    37    69 1   
    70    37    70 1   
    71    38    39 1   
    72    38    71 1   
    73    38    72 1   
    74    39    40 1   
    75    39    42 1   
    76    40    41 1   
    77    40    73 1   
    78    40    74 1   
    79    41    75 1   
    80    41    76 1   
    81    42    77 1   
    82    42    78 1   
    83    42    79 1   
    84    45    80 1   
    85    46    80 1   
    86    53    81 1   
    87    54    81 1   
    88    55    81 1   
@<TRIPOS>SUBSTRUCTURE
     1 7G7         1 TEMP              0 ****  ****    0 ROOT
