@<TRIPOS>MOLECULE
7G7
   83    88     1     0     0
SMALL
No Charge or Current Charge


@<TRIPOS>ATOM
      1 C1          -0.6890     0.3900     1.3180 ca         1 7G7      -0.051900
      2 C2          -0.6300     1.6320     2.0000 ca         1 7G7      -0.153000
      3 C3          -1.7920     2.3660     2.2590 ca         1 7G7       0.355900
      4 C9           0.5660    -0.3910     1.1300 cc         1 7G7       0.409200
      5 C11         -4.9270     0.7620    -0.4090 c          1 7G7       0.576600
      6 C12         -6.3440     0.3630    -0.6930 ca         1 7G7      -0.196600
      7 C13         -7.0480    -0.3030     0.3240 ca         1 7G7      -0.092900
      8 C14         -6.4030    -0.5850     1.6110 cc         1 7G7       0.353800
      9 C16         -6.9870     0.6240    -1.9190 ca         1 7G7       0.240000
     10 C19         -8.3820    -0.7000     0.1090 ca         1 7G7      -0.125000
     11 C24        -11.0910    -0.5530    -2.7010 c3         1 7G7      -0.084767
     12 N26          0.4880    -1.7240     1.1720 nd         1 7G7      -0.415300
     13 C30          1.8230     0.3160     1.0420 cc         1 7G7      -0.328600
     14 C34          5.3950     0.1740     0.2360 ca         1 7G7       0.603900
     15 C35          5.6210    -0.7260    -0.8160 ca         1 7G7      -0.179000
     16 N4          -3.0150     1.9530     1.8910 nb         1 7G7      -0.649000
     17 C5          -3.1130     0.7700     1.2440 ca         1 7G7       0.490900
     18 C6          -1.9980    -0.0570     0.9360 ca         1 7G7      -0.072300
     19 O8          -2.5900    -2.4280     0.9950 oh         1 7G7      -0.637000
     20 N10         -4.4520     0.4180     0.8760 n          1 7G7      -0.167300
     21 N15         -5.1460    -0.2460     1.9090 nd         1 7G7      -0.372300
     22 C17         -8.3160     0.2240    -2.1260 ca         1 7G7      -0.170000
     23 C18         -9.0430    -0.4480    -1.1150 ca         1 7G7      -0.003300
     24 F21         -6.3500     1.2620    -2.9260 f          1 7G7      -0.148000
     25 C23        -11.4060    -0.2200    -0.2310 c3         1 7G7      -0.084767
     26 C25        -10.5960    -2.4480    -1.1280 c3         1 7G7      -0.084767
     27 N27          1.7050    -2.4110     1.0860 n          1 7G7      -0.118800
     28 C28          3.0120    -1.8710     0.9810 c          1 7G7       0.516200
     29 C29          3.0100    -0.3650     0.9360 cd         1 7G7       0.091800
     30 O32          4.0180    -2.5770     0.9540 o          1 7G7      -0.524000
     31 N33          4.1780     0.3780     0.8370 nu         1 7G7      -0.797900
     32 C36          6.9060    -0.8060    -1.3730 ca         1 7G7      -0.046000
     33 C37          7.9080     0.0370    -0.8550 ca         1 7G7      -0.153300
     34 C38          7.5620     0.9250     0.1880 ca         1 7G7       0.377900
     35 N39          6.3220     1.0010     0.7230 nb         1 7G7      -0.716000
     36 C40          9.3320    -0.0050    -1.4260 c6         1 7G7      -0.006400
     37 C41          9.7430     1.3450    -2.0690 c6         1 7G7      -0.071400
     38 C42         11.1890     1.2840    -2.6170 c6         1 7G7       0.167300
     39 N43         12.1600     0.8950    -1.5570 n3         1 7G7      -0.717600
     40 C44         11.8080    -0.4180    -0.9500 c6         1 7G7       0.167300
     41 C45         10.3790    -0.4040    -0.3550 c6         1 7G7      -0.071400
     42 C46         13.5590     0.9360    -2.0340 c3         1 7G7       0.154100
     43 H1           0.3030     2.0300     2.3840 ha         1 7G7       0.130000
     44 H2          -1.7420     3.3140     2.7930 h4         1 7G7       0.028100
     45 H3          -3.0590    -1.1730    -0.5900 h1         1 7G7       0.029200
     46 H4          -1.3720    -1.5840    -0.4820 h1         1 7G7       0.029200
     47 H5          -6.8860    -1.0910     2.4360 h4         1 7G7       0.047800
     48 H6          -8.9070    -1.2140     0.9110 ha         1 7G7       0.125000
     49 H7         -11.0840     0.5310    -2.8700 hc         1 7G7       0.039256
     50 H8         -10.5150    -1.0350    -3.5010 hc         1 7G7       0.039256
     51 H9         -12.1300    -0.8940    -2.7940 hc         1 7G7       0.039256
     52 H10          1.8180     1.3970     0.9990 ha         1 7G7       0.203000
     53 H11          0.5030    -4.1670     1.2020 h1         1 7G7       0.060367
     54 H12          1.9940    -4.3270     0.2350 h1         1 7G7       0.060367
     55 H13          2.0860    -4.2720     2.0190 h1         1 7G7       0.060367
     56 H14          4.8160    -1.3380    -1.2050 ha         1 7G7       0.125000
     57 H15         -2.6510    -3.2300     0.4320 ho         1 7G7       0.439000
     58 H16         -8.7590     0.4520    -3.0890 ha         1 7G7       0.139000
     59 H17        -11.1120    -0.5050     0.7850 hc         1 7G7       0.039256
     60 H18        -11.3330     0.8710    -0.3110 hc         1 7G7       0.039256
     61 H19        -12.4590    -0.4990    -0.3600 hc         1 7G7       0.039256
     62 H20        -11.6200    -2.8080    -1.2890 hc         1 7G7       0.039256
     63 H21         -9.9430    -2.9530    -1.8500 hc         1 7G7       0.039256
     64 H22        -10.2920    -2.7600    -0.1230 hc         1 7G7       0.039256
     65 H23          4.1740     1.2660     1.3310 hn         1 7G7       0.508000
     66 H24          7.1140    -1.4970    -2.1870 ha         1 7G7       0.117000
     67 H25          8.3020     1.6030     0.6110 h4         1 7G7       0.023100
     68 H26          9.3640    -0.7690    -2.2170 hc         1 7G7       0.046700
     69 H27          9.0510     1.5980    -2.8830 hc         1 7G7       0.050700
     70 H28          9.6720     2.1560    -1.3320 hc         1 7G7       0.050700
     71 H29         11.2280     0.5660    -3.4500 h1         1 7G7       0.030200
     72 H30         11.4510     2.2700    -3.0290 h1         1 7G7       0.030200
     73 H32         11.8760    -1.2160    -1.7040 h1         1 7G7       0.030200
     74 H33         12.5200    -0.6690    -0.1490 h1         1 7G7       0.030200
     75 H34         10.3490     0.2960     0.4900 hc         1 7G7       0.050700
     76 H35         10.1400    -1.3960     0.0520 hc         1 7G7       0.050700
     77 H36         13.7200     0.2070    -2.8390 h1         1 7G7       0.029700
     78 H37         13.8080     1.9340    -2.4190 h1         1 7G7       0.029700
     79 H38         14.2540     0.7070    -1.2160 h1         1 7G7       0.029700
     80 C7          -2.2490    -1.3390     0.1300 c3         1 7G7       0.219900
     81 C31          1.5610    -3.8810     1.1390 c3         1 7G7       0.095300
     82 O20         -4.2140     1.3310    -1.2260 o          1 7G7      -0.510000
     83 C22        -10.5140    -0.9070    -1.3010 c3         1 7G7      -0.006700
@<TRIPOS>BOND
     1     1     2 ar  
     2     1     4 1   
     3     1    18 ar  
     4     2     3 ar  
     5     2    43 1   
     6     3    16 ar  
     7     3    44 1   
     8     4    12 2   
     9     4    13 1   
    10     5     6 1   
    11     5    20 1   
    12     5    82 2   
    13     6     7 ar  
    14     6     9 ar  
    15     7     8 1   
    16     7    10 ar  
    17     8    21 2   
    18     8    47 1   
    19     9    22 ar  
    20     9    24 1   
    21    10    23 ar  
    22    10    48 1   
    23    11    49 1   
    24    11    50 1   
    25    11    51 1   
    26    11    83 1   
    27    12    27 1   
    28    13    29 2   
    29    13    52 1   
    30    14    15 ar  
    31    14    31 1   
    32    14    35 ar  
    33    15    32 ar  
    34    15    56 1   
    35    16    17 ar  
    36    17    18 ar  
    37    17    20 1   
    38    18    80 1   
    39    19    57 1   
    40    19    80 1   
    41    20    21 1   
    42    22    23 ar  
    43    22    58 1   
    44    23    83 1   
    45    25    59 1   
    46    25    60 1   
    47    25    61 1   
    48    25    83 1   
    49    26    62 1   
    50    26    63 1   
    51    26    64 1   
    52    26    83 1   
    53    27    28 1   
    54    27    81 1   
    55    28    29 1   
    56    28    30 2   
    57    29    31 1   
    58    31    65 1   
    59    32    33 ar  
    60    32    66 1   
    61    33    34 ar  
    62    33    36 1   
    63    34    35 ar  
    64    34    67 1   
    65    36    37 1   
    66    36    41 1   
    67    36    68 1   
    68    37    38 1   
    69    37    69 1   
    70    37    70 1   
    71    38    39 1   
    72    38    71 1   
    73    38    72 1   
    74    39    40 1   
    75    39    42 1   
    76    40    41 1   
    77    40    73 1   
    78    40    74 1   
    79    41    75 1   
    80    41    76 1   
    81    42    77 1   
    82    42    78 1   
    83    42    79 1   
    84    45    80 1   
    85    46    80 1   
    86    53    81 1   
    87    54    81 1   
    88    55    81 1   
@<TRIPOS>SUBSTRUCTURE
     1 7G7         1 TEMP              0 ****  ****    0 ROOT
