@<TRIPOS>MOLECULE
7G8
   61    64     1     0     0
SMALL
bcc


@<TRIPOS>ATOM
      1 C4          -6.6520    -1.3660     0.8110 ca         1 7G8       0.106600
      2 C5          -5.9670    -1.8590     1.9270 ca         1 7G8      -0.212000
      3 C6          -4.6160    -1.6090     2.0640 ca         1 7G8      -0.076000
      4 C8          -8.9280    -1.3130    -0.2140 c          1 7G8       0.673100
      5 C13         -2.4200     1.5430    -2.3450 ca         1 7G8      -0.223700
      6 C20          1.6530     1.1290     0.6340 ca         1 7G8       0.191600
      7 C21          2.2700     0.6750     1.8070 ca         1 7G8      -0.164500
      8 C22          3.6050     0.9270     2.0580 ca         1 7G8      -0.097000
      9 C24          3.7600     2.0990    -0.0310 ca         1 7G8      -0.097000
     10 C28          7.9430     1.4130     1.3040 ca         1 7G8      -0.269300
     11 O34          6.0680    -2.6150    -0.9160 o          1 7G8      -0.608100
     12 N35          8.3010    -2.9530    -0.9210 ns         1 7G8      -0.553900
     13 C36          8.2550    -4.2290    -1.5900 c3         1 7G8       0.096300
     14 C31          7.4570    -0.9380     0.0550 ca         1 7G8       0.382800
     15 N30          8.7180    -0.6200     0.3180 nb         1 7G8      -0.703000
     16 C29          8.9440     0.5350     0.9310 ca         1 7G8       0.427200
     17 C32          6.3710    -0.1390     0.3790 ca         1 7G8      -0.268300
     18 C27          6.6250     1.0670     1.0220 ca         1 7G8       0.168100
     19 C23          4.3480     1.6450     1.1340 ca         1 7G8       0.048100
     20 C25          2.4180     1.8490    -0.2860 ca         1 7G8      -0.164500
     21 C16         -0.5800     1.0940    -0.5120 ca         1 7G8       0.944900
     22 N15         -0.2010     1.7800    -1.5750 nb         1 7G8      -0.772000
     23 C14         -1.1470     1.9980    -2.4940 ca         1 7G8       0.473200
     24 F18         -3.3660     1.7670    -3.2730 f          1 7G8      -0.134900
     25 N17         -1.8050     0.6070    -0.2790 nb         1 7G8      -0.834000
     26 C12         -2.7440     0.8160    -1.1800 ca         1 7G8       0.740200
     27 C2          -4.5870    -0.3860     0.0100 ca         1 7G8       0.194600
     28 C3          -5.9570    -0.6310    -0.1420 ca         1 7G8      -0.213000
     29 C1          -3.9050    -0.8770     1.1210 ca         1 7G8      -0.175000
     30 N7          -8.0150    -1.6560     0.7350 ns         1 7G8      -0.477100
     31 O10         -8.6570    -0.6770    -1.2160 o          1 7G8      -0.577100
     32 C9         -10.3310    -1.7870     0.1060 c3         1 7G8      -0.158400
     33 C37        -11.2930    -1.6620    -1.0610 c3         1 7G8      -0.077100
     34 H1          -6.4950    -2.4320     2.6800 ha         1 7G8       0.130000
     35 H2          -4.0930    -1.9950     2.9290 ha         1 7G8       0.132000
     36 H3           1.6950     0.1150     2.5350 ha         1 7G8       0.155500
     37 H4           4.0600     0.5690     2.9720 ha         1 7G8       0.147500
     38 H5           4.3430     2.6590    -0.7520 ha         1 7G8       0.147500
     39 H6           8.1820     2.3420     1.8020 ha         1 7G8       0.157000
     40 H7           9.1900    -2.5560    -0.6600 hn         1 7G8       0.344500
     41 H8           7.8040    -4.1480    -2.5800 h1         1 7G8       0.040033
     42 H9           9.2710    -4.5940    -1.7050 h1         1 7G8       0.040033
     43 H10          7.6880    -4.9640    -1.0170 h1         1 7G8       0.040033
     44 H11          9.9780     0.7820     1.1390 h4         1 7G8       0.022100
     45 H12          5.3710    -0.4640     0.1330 ha         1 7G8       0.180000
     46 H13          1.9750     2.2160    -1.1960 ha         1 7G8       0.155500
     47 H14         -0.0980     0.2920     1.2450 hn         1 7G8       0.455800
     48 H15         -0.8650     2.5590    -3.3790 h4         1 7G8       0.039100
     49 H16         -4.6440     0.5910    -1.7650 hn         1 7G8       0.461800
     50 H17         -6.4670    -0.2410    -1.0080 ha         1 7G8       0.166000
     51 H18         -2.8530    -0.6960     1.2570 ha         1 7G8       0.165000
     52 H19         -8.3720    -2.1890     1.5130 hn         1 7G8       0.315500
     53 H20        -10.2880    -2.8210     0.4560 hc         1 7G8       0.057700
     54 H21        -10.6910    -1.2030     0.9590 hc         1 7G8       0.057700
     55 H22        -12.2760    -2.0300    -0.7690 hc         1 7G8       0.045033
     56 H23        -11.4090    -0.6270    -1.3820 hc         1 7G8       0.045033
     57 H24        -10.9630    -2.2450    -1.9200 hc         1 7G8       0.045033
     58 N11         -4.0060     0.3570    -1.0200 nu         1 7G8      -0.733300
     59 N19          0.3090     0.8180     0.4860 nu         1 7G8      -0.732300
     60 O26          5.6720     1.9390     1.3960 os         1 7G8      -0.240200
     61 C33          7.2050    -2.2500    -0.6410 c          1 7G8       0.566600
@<TRIPOS>BOND
     1     1     2 ar  
     2     1    28 ar  
     3     1    30 1   
     4     2     3 ar  
     5     2    34 1   
     6     3    29 ar  
     7     3    35 1   
     8     4    30 1   
     9     4    31 2   
    10     4    32 1   
    11     5    23 ar  
    12     5    24 1   
    13     5    26 ar  
    14     6     7 ar  
    15     6    20 ar  
    16     6    59 1   
    17     7     8 ar  
    18     7    36 1   
    19     8    19 ar  
    20     8    37 1   
    21     9    19 ar  
    22     9    20 ar  
    23     9    38 1   
    24    10    16 ar  
    25    10    18 ar  
    26    10    39 1   
    27    11    61 2   
    28    12    13 1   
    29    12    40 1   
    30    12    61 1   
    31    13    41 1   
    32    13    42 1   
    33    13    43 1   
    34    14    15 ar  
    35    14    17 ar  
    36    14    61 1   
    37    15    16 ar  
    38    16    44 1   
    39    17    18 ar  
    40    17    45 1   
    41    18    60 1   
    42    19    60 1   
    43    20    46 1   
    44    21    22 ar  
    45    21    25 ar  
    46    21    59 1   
    47    22    23 ar  
    48    23    48 1   
    49    25    26 ar  
    50    26    58 1   
    51    27    28 ar  
    52    27    29 ar  
    53    27    58 1   
    54    28    50 1   
    55    29    51 1   
    56    30    52 1   
    57    32    33 1   
    58    32    53 1   
    59    32    54 1   
    60    33    55 1   
    61    33    56 1   
    62    33    57 1   
    63    47    59 1   
    64    49    58 1   
@<TRIPOS>SUBSTRUCTURE
     1 7G8         1 TEMP              0 ****  ****    0 ROOT
