@<TRIPOS>MOLECULE
7G8
   61    64     1     0     0
SMALL
No Charge or Current Charge


@<TRIPOS>ATOM
      1 C4          -6.7650    -1.4910     0.4730 ca         1 7G8       0.014000
      2 C5          -6.0480    -2.5050     1.1330 ca         1 7G8      -0.194000
      3 C6          -4.6580    -2.6180     0.9740 ca         1 7G8      -0.058000
      4 C8          -9.1560    -0.5750     0.2310 c          1 7G8       0.606100
      5 C13         -2.3560     1.5740    -2.5090 ca         1 7G8      -0.058000
      6 C20          1.5210     0.9760     0.8470 ca         1 7G8       0.330000
      7 C21          1.9150     1.0600     2.1940 ca         1 7G8      -0.146500
      8 C22          3.2630     1.2760     2.5350 ca         1 7G8      -0.079000
      9 C24          3.8490     1.3070     0.1740 ca         1 7G8      -0.079000
     10 C28          7.7970     1.7300     1.0770 ca         1 7G8      -0.186000
     11 O34          6.5930    -3.0280    -0.2860 o          1 7G8      -0.608100
     12 N35          8.7370    -2.7830    -1.0010 ns         1 7G8      -0.486900
     13 C36          8.9000    -4.1220    -1.5700 c3         1 7G8       0.096300
     14 C31          7.6570    -0.8700     0.1310 ca         1 7G8       0.317500
     15 N30          8.8150    -0.1600    -0.0340 nb         1 7G8      -0.703000
     16 C29          8.8730     1.1080     0.4340 ca         1 7G8       0.361900
     17 C32          6.5370    -0.3010     0.7690 ca         1 7G8      -0.185000
     18 C27          6.6050     1.0200     1.2390 ca         1 7G8       0.168100
     19 C23          4.2330     1.3920     1.5260 ca         1 7G8       0.048100
     20 C25          2.4990     1.0920    -0.1610 ca         1 7G8      -0.146500
     21 C16         -0.6560     1.0270    -0.5170 ca         1 7G8       0.418900
     22 N15         -0.1950     1.8180    -1.5040 nb         1 7G8      -0.246000
     23 C14         -1.0510     2.0900    -2.5080 ca         1 7G8       0.144900
     24 F18         -3.2130     1.8640    -3.5200 f          1 7G8      -0.170000
     25 N17         -1.8840     0.4970    -0.4190 nb         1 7G8      -0.308000
     26 C12         -2.7360     0.7570    -1.4250 ca         1 7G8       0.411900
     27 C2          -4.6680    -0.6810    -0.5030 ca         1 7G8       0.333000
     28 C3          -6.0610    -0.5850    -0.3520 ca         1 7G8      -0.195000
     29 C1          -3.9720    -1.7100     0.1550 ca         1 7G8      -0.157000
     30 N7          -8.1710    -1.4470     0.6760 ns         1 7G8      -0.151000
     31 O10         -8.9470     0.4150    -0.4610 o          1 7G8      -0.577100
     32 C9         -10.5720    -0.9250     0.7130 c3         1 7G8      -0.158400
     33 C37        -11.4430    -1.4950    -0.4290 c3         1 7G8      -0.077100
     34 H1          -6.5710    -3.2150     1.7700 ha         1 7G8       0.112000
     35 H2          -4.1150    -3.4140     1.4810 ha         1 7G8       0.114000
     36 H3           1.1740     0.9680     2.9830 ha         1 7G8       0.137500
     37 H4           3.5570     1.3490     3.5790 ha         1 7G8       0.129500
     38 H5           4.5900     1.4060    -0.6160 ha         1 7G8       0.129500
     39 H6           7.8910     2.7490     1.4380 ha         1 7G8       0.139000
     40 H7           9.5110    -2.1250    -1.0430 hn         1 7G8       0.344500
     41 H8           8.1610    -4.2770    -2.3660 h1         1 7G8       0.040033
     42 H9           9.9090    -4.2220    -1.9880 h1         1 7G8       0.040033
     43 H10          8.7560    -4.8760    -0.7850 h1         1 7G8       0.040033
     44 H11          9.8140     1.6370     0.2880 h4         1 7G8       0.022100
     45 H12          5.6320    -0.8860     0.9000 ha         1 7G8       0.162000
     46 H13          2.2270     1.0000    -1.2070 ha         1 7G8       0.137500
     47 H14         -0.3490     0.3500     1.3390 hn         1 7G8       0.511000
     48 H15         -0.6880     2.7300    -3.3110 h4         1 7G8       0.039100
     49 H16         -4.6560     0.6710    -2.0190 hn         1 7G8       0.517000
     50 H17         -6.5810     0.2060    -0.8790 ha         1 7G8       0.148000
     51 H18         -2.9020    -1.8260     0.0210 ha         1 7G8       0.147000
     52 H19         -8.5200    -2.2000     1.2530 hn         1 7G8       0.149000
     53 H20        -10.5250    -1.6740     1.5130 hc         1 7G8       0.057700
     54 H21        -11.0520    -0.0140     1.0880 hc         1 7G8       0.057700
     55 H22        -12.4480    -1.7360    -0.0620 hc         1 7G8       0.045033
     56 H23        -11.5430    -0.7670    -1.2440 hc         1 7G8       0.045033
     57 H24        -10.9990    -2.4110    -0.8370 hc         1 7G8       0.045033
     58 N11         -4.0290     0.2350    -1.3430 nu         1 7G8      -0.926900
     59 N19          0.1720     0.7480     0.5590 nu         1 7G8      -0.925900
     60 O26          5.5440     1.6150     1.8820 os         1 7G8      -0.240200
     61 C33          7.5880    -2.3150    -0.3900 c          1 7G8       0.499600
@<TRIPOS>BOND
     1     1     2 ar  
     2     1    28 ar  
     3     1    30 1   
     4     2     3 ar  
     5     2    34 1   
     6     3    29 ar  
     7     3    35 1   
     8     4    30 1   
     9     4    31 2   
    10     4    32 1   
    11     5    23 ar  
    12     5    24 1   
    13     5    26 ar  
    14     6     7 ar  
    15     6    20 ar  
    16     6    59 1   
    17     7     8 ar  
    18     7    36 1   
    19     8    19 ar  
    20     8    37 1   
    21     9    19 ar  
    22     9    20 ar  
    23     9    38 1   
    24    10    16 ar  
    25    10    18 ar  
    26    10    39 1   
    27    11    61 2   
    28    12    13 1   
    29    12    40 1   
    30    12    61 1   
    31    13    41 1   
    32    13    42 1   
    33    13    43 1   
    34    14    15 ar  
    35    14    17 ar  
    36    14    61 1   
    37    15    16 ar  
    38    16    44 1   
    39    17    18 ar  
    40    17    45 1   
    41    18    60 1   
    42    19    60 1   
    43    20    46 1   
    44    21    22 ar  
    45    21    25 ar  
    46    21    59 1   
    47    22    23 ar  
    48    23    48 1   
    49    25    26 ar  
    50    26    58 1   
    51    27    28 ar  
    52    27    29 ar  
    53    27    58 1   
    54    28    50 1   
    55    29    51 1   
    56    30    52 1   
    57    32    33 1   
    58    32    53 1   
    59    32    54 1   
    60    33    55 1   
    61    33    56 1   
    62    33    57 1   
    63    47    59 1   
    64    49    58 1   
@<TRIPOS>SUBSTRUCTURE
     1 7G8         1 TEMP              0 ****  ****    0 ROOT
