@<TRIPOS>MOLECULE
7G9
   55    57     1     0     0
SMALL
bcc


@<TRIPOS>ATOM
      1 C1          -1.5600     3.8740    -0.0920 ca         1 7G9      -0.233700
      2 C2          -0.2050     3.9740    -0.1330 ca         1 7G9       0.476200
      3 C8           2.0640     0.3350    -0.0960 ca         1 7G9       0.138600
      4 C9           2.4680    -1.0030    -0.0190 ca         1 7G9      -0.131500
      5 C10          3.8010    -1.3520     0.0080 ca         1 7G9      -0.161500
      6 C11          4.7910    -0.3710    -0.0400 ca         1 7G9       0.121100
      7 C12          4.4000     0.9580    -0.1280 ca         1 7G9      -0.161500
      8 C13          3.0530     1.3110    -0.1550 ca         1 7G9      -0.131500
      9 C15          7.1070     0.1540    -0.0060 c3         1 7G9       0.140400
     10 C16          8.4220    -0.5550     0.1740 c3         1 7G9       0.133400
     11 O17          8.6830    -1.3690    -0.9370 os         1 7G9      -0.393600
     12 C20         -4.3340     1.3780     0.0060 ca         1 7G9       0.196600
     13 C21         -3.8980     0.0590    -0.0110 ca         1 7G9      -0.217000
     14 C22         -4.8190    -0.9940     0.0170 ca         1 7G9       0.103600
     15 C24         -6.6030     0.5950     0.0810 ca         1 7G9      -0.073000
     16 N26         -4.2740    -2.2780    -0.0040 ns         1 7G9      -0.482100
     17 C27         -4.9000    -3.4930     0.0170 c          1 7G9       0.676100
     18 N3           0.5860     2.8970    -0.1430 nb         1 7G9      -0.776000
     19 C4          -0.0290     1.7280    -0.1080 ca         1 7G9       0.946900
     20 N5          -1.3550     1.5320    -0.0700 nb         1 7G9      -0.840000
     21 C6          -2.1400     2.5900    -0.0610 ca         1 7G9       0.741200
     22 N7           0.6900     0.5730    -0.1100 nu         1 7G9      -0.729300
     23 O14          6.0700    -0.8020     0.0070 os         1 7G9      -0.310900
     24 C18          9.8850    -2.0770    -0.8140 c3         1 7G9       0.121700
     25 N19         -3.4900     2.4870    -0.0220 nu         1 7G9      -0.734300
     26 C23         -6.1860    -0.7280     0.0630 ca         1 7G9      -0.178000
     27 C25         -5.7060     1.6430     0.0540 ca         1 7G9      -0.213000
     28 C28         -3.9300    -4.6590    -0.0370 c3         1 7G9      -0.161400
     29 C29         -4.6050    -6.0050     0.1540 c3         1 7G9      -0.078100
     30 O30         -6.1010    -3.6370     0.0640 o          1 7G9      -0.568100
     31 F31         -2.3570     4.9570    -0.0820 f          1 7G9      -0.138900
     32 H1           0.2740     4.9470    -0.1610 h4         1 7G9       0.037100
     33 H2           1.7270    -1.7930     0.0240 ha         1 7G9       0.147500
     34 H3           4.0810    -2.3960     0.0710 ha         1 7G9       0.141000
     35 H4           5.1240     1.7590    -0.1760 ha         1 7G9       0.141000
     36 H5           2.7880     2.3530    -0.2200 ha         1 7G9       0.147500
     37 H6           6.9930     0.8720     0.8150 h1         1 7G9       0.042200
     38 H7           7.1090     0.7220    -0.9440 h1         1 7G9       0.042200
     39 H8           9.2010     0.2110     0.2990 h1         1 7G9       0.032200
     40 H9           8.4040    -1.1420     1.1040 h1         1 7G9       0.032200
     41 H10         -2.8400    -0.1470    -0.0480 ha         1 7G9       0.161000
     42 H11         -7.6620     0.8090     0.1180 ha         1 7G9       0.134000
     43 H12         -3.2680    -2.3060    -0.0370 hn         1 7G9       0.314500
     44 H13          0.1110    -0.2470    -0.0670 hn         1 7G9       0.447800
     45 H14          9.8870    -2.7390     0.0600 h1         1 7G9       0.028700
     46 H15         10.0090    -2.6880    -1.7080 h1         1 7G9       0.028700
     47 H16         10.7540    -1.4120    -0.7300 h1         1 7G9       0.028700
     48 H17         -3.9740     3.3690    -0.0090 hn         1 7G9       0.456800
     49 H18         -6.9100    -1.5240     0.0850 ha         1 7G9       0.169000
     50 H19         -6.0670     2.6650     0.0700 ha         1 7G9       0.132000
     51 H20         -3.4120    -4.6280    -1.0010 hc         1 7G9       0.057700
     52 H21         -5.0960    -6.0700     1.1240 hc         1 7G9       0.045033
     53 H22         -5.3600    -6.1850    -0.6090 hc         1 7G9       0.045033
     54 H23         -3.1560    -4.5130     0.7230 hc         1 7G9       0.057700
     55 H24         -3.8700    -6.8060     0.0950 hc         1 7G9       0.045033
@<TRIPOS>BOND
     1     1     2 ar  
     2     1    21 ar  
     3     1    31 1   
     4     2    18 ar  
     5     2    32 1   
     6     3     4 ar  
     7     3     8 ar  
     8     3    22 1   
     9     4     5 ar  
    10     4    33 1   
    11     5     6 ar  
    12     5    34 1   
    13     6     7 ar  
    14     6    23 1   
    15     7     8 ar  
    16     7    35 1   
    17     8    36 1   
    18     9    10 1   
    19     9    23 1   
    20     9    37 1   
    21     9    38 1   
    22    10    11 1   
    23    10    39 1   
    24    10    40 1   
    25    11    24 1   
    26    12    13 ar  
    27    12    25 1   
    28    12    27 ar  
    29    13    14 ar  
    30    13    41 1   
    31    14    16 1   
    32    14    26 ar  
    33    15    26 ar  
    34    15    27 ar  
    35    15    42 1   
    36    16    17 1   
    37    16    43 1   
    38    17    28 1   
    39    17    30 2   
    40    18    19 ar  
    41    19    20 ar  
    42    19    22 1   
    43    20    21 ar  
    44    21    25 1   
    45    22    44 1   
    46    24    45 1   
    47    24    46 1   
    48    24    47 1   
    49    25    48 1   
    50    26    49 1   
    51    27    50 1   
    52    28    29 1   
    53    28    51 1   
    54    28    54 1   
    55    29    52 1   
    56    29    53 1   
    57    29    55 1   
@<TRIPOS>SUBSTRUCTURE
     1 7G9         1 TEMP              0 ****  ****    0 ROOT
