@<TRIPOS>MOLECULE
7G9
   55    57     1     0     0
SMALL
No Charge or Current Charge


@<TRIPOS>ATOM
      1 C1          -1.6590     3.6610     0.9870 ca         1 7G9      -0.068000
      2 C2          -0.2780     3.7380     1.2300 ca         1 7G9       0.147900
      3 C8           2.1440     0.2940     0.0380 ca         1 7G9       0.277000
      4 C9           2.5900    -1.0320     0.1740 ca         1 7G9      -0.113500
      5 C10          3.9650    -1.3310     0.1610 ca         1 7G9      -0.143500
      6 C11          4.9130    -0.3080     0.0010 ca         1 7G9       0.121100
      7 C12          4.4740     1.0240    -0.1530 ca         1 7G9      -0.143500
      8 C13          3.0970     1.3190    -0.1380 ca         1 7G9      -0.113500
      9 C15          7.2980     0.3150    -0.1640 c3         1 7G9       0.163600
     10 C16          8.6620    -0.4110    -0.1160 c3         1 7G9       0.156600
     11 O17          8.8260    -1.1850    -1.3220 os         1 7G9      -0.440000
     12 C20         -4.3290     1.2840    -0.2960 ca         1 7G9       0.335000
     13 C21         -4.0310    -0.0620    -0.0190 ca         1 7G9      -0.199000
     14 C22         -4.8790    -1.0990    -0.4520 ca         1 7G9       0.011000
     15 C24         -6.3660     0.5760    -1.4270 ca         1 7G9      -0.055000
     16 N26         -4.5040    -2.4310    -0.1290 ns         1 7G9      -0.156000
     17 C27         -5.0500    -3.6640    -0.4610 c          1 7G9       0.609100
     18 N3           0.5420     2.7150     0.9200 nb         1 7G9      -0.250000
     19 C4          -0.0310     1.6330     0.3590 ca         1 7G9       0.420900
     20 N5          -1.3350     1.4570     0.1000 nb         1 7G9      -0.314000
     21 C6          -2.1560     2.4710     0.4200 ca         1 7G9       0.412900
     22 N7           0.7640     0.5420     0.0450 nu         1 7G9      -0.922900
     23 O14          6.2470    -0.6590    -0.0050 os         1 7G9      -0.334100
     24 C18         10.0600    -1.9170    -1.3970 c3         1 7G9       0.144900
     25 N19         -3.5160     2.3340     0.1320 nu         1 7G9      -0.927900
     26 C23         -6.0530    -0.7680    -1.1620 ca         1 7G9      -0.160000
     27 C25         -5.5070     1.5960    -0.9890 ca         1 7G9      -0.195000
     28 C28         -4.2970    -4.8660     0.1290 c3         1 7G9      -0.161400
     29 C29         -5.0870    -5.5320     1.2780 c3         1 7G9      -0.078100
     30 O30         -6.0270    -3.8180    -1.1850 o          1 7G9      -0.568100
     31 F31         -2.4730     4.7010     1.2960 f          1 7G9      -0.174000
     32 H1           0.1760     4.6220     1.6740 h4         1 7G9       0.037100
     33 H2           1.8710    -1.8370     0.3000 ha         1 7G9       0.129500
     34 H3           4.2980    -2.3600     0.2740 ha         1 7G9       0.123000
     35 H4           5.1790     1.8390    -0.2910 ha         1 7G9       0.123000
     36 H5           2.7810     2.3460    -0.2840 ha         1 7G9       0.129500
     37 H6           7.2620     1.0510     0.6490 h1         1 7G9       0.042200
     38 H7           7.2020     0.8480    -1.1190 h1         1 7G9       0.042200
     39 H8           9.4600     0.3380    -0.0330 h1         1 7G9       0.032200
     40 H9           8.7030    -1.0540     0.7740 h1         1 7G9       0.032200
     41 H10         -3.1440    -0.3110     0.5530 ha         1 7G9       0.143000
     42 H11         -7.2760     0.8260    -1.9690 ha         1 7G9       0.116000
     43 H12         -3.6830    -2.4910     0.4590 hn         1 7G9       0.148000
     44 H13          0.2000    -0.2810    -0.1640 hn         1 7G9       0.503000
     45 H14         10.1410    -2.6310    -0.5670 h1         1 7G9       0.028700
     46 H15         10.1140    -2.4780    -2.3380 h1         1 7G9       0.028700
     47 H16         10.9210    -1.2360    -1.3550 h1         1 7G9       0.028700
     48 H17         -4.0060     3.2250     0.1880 hn         1 7G9       0.512000
     49 H18         -6.7420    -1.5320    -1.5080 ha         1 7G9       0.151000
     50 H19         -5.7580     2.6320    -1.2000 ha         1 7G9       0.114000
     51 H20         -4.1490    -5.6120    -0.6620 hc         1 7G9       0.057700
     52 H21         -5.2600    -4.8200     2.0950 hc         1 7G9       0.045033
     53 H22         -6.0610    -5.8930     0.9240 hc         1 7G9       0.045033
     54 H23         -3.3240    -4.5470     0.5220 hc         1 7G9       0.057700
     55 H24         -4.5310    -6.3870     1.6810 hc         1 7G9       0.045033
@<TRIPOS>BOND
     1     1     2 ar  
     2     1    21 ar  
     3     1    31 1   
     4     2    18 ar  
     5     2    32 1   
     6     3     4 ar  
     7     3     8 ar  
     8     3    22 1   
     9     4     5 ar  
    10     4    33 1   
    11     5     6 ar  
    12     5    34 1   
    13     6     7 ar  
    14     6    23 1   
    15     7     8 ar  
    16     7    35 1   
    17     8    36 1   
    18     9    10 1   
    19     9    23 1   
    20     9    37 1   
    21     9    38 1   
    22    10    11 1   
    23    10    39 1   
    24    10    40 1   
    25    11    24 1   
    26    12    13 ar  
    27    12    25 1   
    28    12    27 ar  
    29    13    14 ar  
    30    13    41 1   
    31    14    16 1   
    32    14    26 ar  
    33    15    26 ar  
    34    15    27 ar  
    35    15    42 1   
    36    16    17 1   
    37    16    43 1   
    38    17    28 1   
    39    17    30 2   
    40    18    19 ar  
    41    19    20 ar  
    42    19    22 1   
    43    20    21 ar  
    44    21    25 1   
    45    22    44 1   
    46    24    45 1   
    47    24    46 1   
    48    24    47 1   
    49    25    48 1   
    50    26    49 1   
    51    27    50 1   
    52    28    29 1   
    53    28    51 1   
    54    28    54 1   
    55    29    52 1   
    56    29    53 1   
    57    29    55 1   
@<TRIPOS>SUBSTRUCTURE
     1 7G9         1 TEMP              0 ****  ****    0 ROOT
