@<TRIPOS>MOLECULE
7GA
   22    21     1     0     0
SMALL
No Charge or Current Charge


@<TRIPOS>ATOM
      1 CA          -0.5580    -0.4240     0.0110 c3         1 7GA      -0.192700
      2 C           -1.8880     0.3690     0.0500 c          1 7GA       0.718000
      3 O           -2.2260     1.0000    -0.9410 o          1 7GA      -0.740000
      4 C8           0.6530     0.5400    -0.1790 c3         1 7GA      -0.048400
      5 C9           2.0730    -0.0980    -0.1110 c3         1 7GA      -0.067700
      6 C10          3.1610     0.9580    -0.4110 c3         1 7GA      -0.080100
      7 C11          2.3590    -0.8070     1.2350 c3         1 7GA      -0.080100
      8 C6          -0.6180    -1.5490    -1.0530 c3         1 7GA      -0.061100
      9 OXT         -2.5490     0.3340     1.0770 o          1 7GA      -0.740000
     10 HA          -0.4510    -0.9100     0.9880 hc         1 7GA       0.026700
     11 H81C         0.5460     1.0450    -1.1470 hc         1 7GA       0.040700
     12 H82C         0.5900     1.3270     0.5830 hc         1 7GA       0.040700
     13 H61C        -1.5200    -2.1560    -0.9140 hc         1 7GA       0.010700
     14 H62C        -0.6390    -1.1310    -2.0660 hc         1 7GA       0.010700
     15 H63C         0.2470    -2.2170    -0.9720 hc         1 7GA       0.010700
     16 H9           2.1460    -0.8530    -0.9030 hc         1 7GA       0.033700
     17 H101         4.1570     0.4980    -0.4230 hc         1 7GA       0.019700
     18 H102         2.9940     1.4210    -1.3910 hc         1 7GA       0.019700
     19 H103         3.1580     1.7500     0.3480 hc         1 7GA       0.019700
     20 H111         1.6900    -1.6630     1.3820 hc         1 7GA       0.019700
     21 H112         3.3870    -1.1870     1.2600 hc         1 7GA       0.019700
     22 H113         2.2290    -0.1150     2.0760 hc         1 7GA       0.019700
@<TRIPOS>BOND
     1     1     2 1   
     2     1     4 1   
     3     1     8 1   
     4     1    10 1   
     5     2     3 1   
     6     2     9 1   
     7     4     5 1   
     8     4    11 1   
     9     4    12 1   
    10     5     6 1   
    11     5     7 1   
    12     5    16 1   
    13     6    17 1   
    14     6    18 1   
    15     6    19 1   
    16     7    20 1   
    17     7    21 1   
    18     7    22 1   
    19     8    13 1   
    20     8    14 1   
    21     8    15 1   
@<TRIPOS>SUBSTRUCTURE
     1 7GA         1 TEMP              0 ****  ****    0 ROOT
