@<TRIPOS>MOLECULE
7GA
   22    21     1     0     0
SMALL
abcg2


@<TRIPOS>ATOM
      1 CA          -0.5260    -0.3780     0.0530 c3         1 7GA      -0.192700
      2 C           -1.8780     0.3750     0.0410 c          1 7GA       0.718000
      3 O           -1.8900     1.5670    -0.3280 o          1 7GA      -0.740000
      4 C8           0.6700     0.5290    -0.2220 c3         1 7GA      -0.048400
      5 C9           2.0520    -0.1270    -0.1430 c3         1 7GA      -0.067700
      6 C10          3.1300     0.8940    -0.4960 c3         1 7GA      -0.080100
      7 C11          2.3330    -0.7380     1.2260 c3         1 7GA      -0.080100
      8 C6          -0.5920    -1.5520    -0.9260 c3         1 7GA      -0.061100
      9 OXT         -2.8750    -0.2880     0.4010 o          1 7GA      -0.740000
     10 HA          -0.4240    -0.8020     1.0600 hc         1 7GA       0.026700
     11 H81C         0.5550     0.9750    -1.2160 hc         1 7GA       0.040700
     12 H82C         0.6540     1.3670     0.4840 hc         1 7GA       0.040700
     13 H61C        -1.4580    -2.1820    -0.7230 hc         1 7GA       0.010700
     14 H62C        -0.6710    -1.1980    -1.9570 hc         1 7GA       0.010700
     15 H63C         0.2940    -2.1860    -0.8660 hc         1 7GA       0.010700
     16 H9           2.1040    -0.9300    -0.8870 hc         1 7GA       0.033700
     17 H101         4.1220     0.4380    -0.5140 hc         1 7GA       0.019700
     18 H102         2.9510     1.3410    -1.4760 hc         1 7GA       0.019700
     19 H103         3.1550     1.7050     0.2370 hc         1 7GA       0.019700
     20 H111         1.6480    -1.5510     1.4660 hc         1 7GA       0.019700
     21 H112         3.3460    -1.1420     1.2740 hc         1 7GA       0.019700
     22 H113         2.2410     0.0160     2.0140 hc         1 7GA       0.019700
@<TRIPOS>BOND
     1     1     2 1   
     2     1     4 1   
     3     1     8 1   
     4     1    10 1   
     5     2     3 1   
     6     2     9 1   
     7     4     5 1   
     8     4    11 1   
     9     4    12 1   
    10     5     6 1   
    11     5     7 1   
    12     5    16 1   
    13     6    17 1   
    14     6    18 1   
    15     6    19 1   
    16     7    20 1   
    17     7    21 1   
    18     7    22 1   
    19     8    13 1   
    20     8    14 1   
    21     8    15 1   
@<TRIPOS>SUBSTRUCTURE
     1 7GA         1 TEMP              0 ****  ****    0 ROOT
