@<TRIPOS>MOLECULE
7GC
   30    31     1     0     0
SMALL
No Charge or Current Charge


@<TRIPOS>ATOM
      1 C1           4.3490     3.5320     0.4190 c3         1 7GC      -0.059800
      2 C9           3.5810     1.2880     1.3280 ca         1 7GC      -0.135000
      3 C14          2.3600     0.6350    -1.1180 ca         1 7GC       0.003000
      4 C15          3.0210     1.8660    -0.9640 ca         1 7GC      -0.135000
      5 C18         -5.3390     0.6540     0.9500 cc         1 7GC       0.302900
      6 C19         -5.1410     1.4580    -0.1420 cd         1 7GC      -0.308000
      7 N2          -0.0810    -1.5880     0.3710 ns         1 7GC      -0.587300
      8 O3           2.0570    -2.8270     0.6950 o          1 7GC      -0.522000
      9 S4           1.4580    -1.8560    -0.2270 sy         1 7GC       1.198300
     10 C5           3.6330     2.2000     0.2580 ca         1 7GC      -0.010300
     11 N6          -2.1500    -0.7390     0.6250 ns         1 7GC      -0.473400
     12 O7           1.3060    -2.1510    -1.6560 o          1 7GC      -0.522000
     13 S8          -3.5490     1.1980    -0.8280 ss         1 7GC       0.062600
     14 N10         -4.2930    -0.1710     1.2860 nc         1 7GC      -0.706000
     15 O11         -0.8240    -0.0270    -1.0880 o          1 7GC      -0.589100
     16 C12          2.9220     0.0550     1.1830 ca         1 7GC       0.003000
     17 C13          2.3100    -0.2770    -0.0440 ca         1 7GC      -0.305500
     18 C16         -1.0030    -0.7290    -0.1110 c          1 7GC       0.683100
     19 C17         -3.2860    -0.0010     0.4480 cd         1 7GC       0.536300
     20 H1           5.4050     3.4430     0.1380 hc         1 7GC       0.051033
     21 H2           3.8980     4.3070    -0.2120 hc         1 7GC       0.051033
     22 H3           4.3050     3.8870     1.4550 hc         1 7GC       0.051033
     23 H4           4.0520     1.5340     2.2760 ha         1 7GC       0.119500
     24 H5           1.8870     0.4000    -2.0710 ha         1 7GC       0.138000
     25 H6           3.0540     2.5630    -1.7990 ha         1 7GC       0.119500
     26 H8          -5.8260     2.1750    -0.5750 h4         1 7GC       0.162000
     27 H9          -0.2550    -2.1340     1.1950 hn         1 7GC       0.348500
     28 H10         -2.1570    -1.3760     1.4040 hn         1 7GC       0.344500
     29 H11          2.8920    -0.6360     2.0250 ha         1 7GC       0.138000
     30 H7          -6.2350     0.6170     1.5570 h4         1 7GC       0.041100
@<TRIPOS>BOND
     1     1    10 1   
     2     1    20 1   
     3     1    21 1   
     4     1    22 1   
     5     2    10 ar  
     6     2    16 ar  
     7     2    23 1   
     8     3     4 ar  
     9     3    17 ar  
    10     3    24 1   
    11     4    10 ar  
    12     4    25 1   
    13     5     6 2   
    14     5    14 1   
    15     5    30 1   
    16     6    13 1   
    17     6    26 1   
    18     7     9 1   
    19     7    18 1   
    20     7    27 1   
    21     8     9 2   
    22     9    12 2   
    23     9    17 1   
    24    11    18 1   
    25    11    19 1   
    26    11    28 1   
    27    13    19 1   
    28    14    19 2   
    29    15    18 2   
    30    16    17 ar  
    31    16    29 1   
@<TRIPOS>SUBSTRUCTURE
     1 7GC         1 TEMP              0 ****  ****    0 ROOT
