@<TRIPOS>MOLECULE
7GC
   30    31     1     0     0
SMALL
bcc


@<TRIPOS>ATOM
      1 C1           4.2170     3.5090     0.4330 c3         1 7GC      -0.059800
      2 C9           3.3960     1.2970     1.3000 ca         1 7GC      -0.153000
      3 C14          2.3340     0.6380    -1.1830 ca         1 7GC      -0.015000
      4 C15          2.9680     1.8560    -0.9930 ca         1 7GC      -0.153000
      5 C18         -5.2160     0.7510     0.8890 cc         1 7GC       0.368200
      6 C19         -4.8800     1.5210    -0.1710 cd         1 7GC      -0.246400
      7 N2           0.0020    -1.6690     0.4560 ns         1 7GC      -0.654300
      8 O3           2.1780    -2.8040     0.4610 o          1 7GC      -0.592800
      9 S4           1.4780    -1.8110    -0.3310 sy         1 7GC       1.339900
     10 C5           3.5070     2.2040     0.2440 ca         1 7GC      -0.010300
     11 N6          -2.1100    -0.8440     0.7920 ns         1 7GC      -0.540400
     12 O7           1.2430    -2.0410    -1.7400 o          1 7GC      -0.592800
     13 S8          -3.2870     1.1290    -0.7020 ss         1 7GC      -0.082300
     14 N10         -4.2640    -0.1390     1.3040 nc         1 7GC      -0.706000
     15 O11         -0.8380    -0.0510    -0.9050 o          1 7GC      -0.589100
     16 C12          2.7740     0.0740     1.1290 ca         1 7GC      -0.015000
     17 C13          2.2440    -0.2430    -0.1160 ca         1 7GC      -0.305500
     18 C16         -0.9760    -0.7980     0.0410 c          1 7GC       0.817100
     19 C17         -3.2080    -0.0480     0.5630 cd         1 7GC       0.536300
     20 H1           5.2850     3.3920     0.2360 hc         1 7GC       0.051033
     21 H2           3.8420     4.2720    -0.2480 hc         1 7GC       0.051033
     22 H3           4.1140     3.8770     1.4530 hc         1 7GC       0.051033
     23 H4           3.8040     1.5500     2.2700 ha         1 7GC       0.137500
     24 H5           1.9240     0.3880    -2.1500 ha         1 7GC       0.156000
     25 H6           3.0420     2.5450    -1.8240 ha         1 7GC       0.137500
     26 H8          -5.4640     2.2800    -0.6650 h4         1 7GC       0.180000
     27 H9          -0.1020    -2.2270     1.2960 hn         1 7GC       0.348500
     28 H10         -2.1960    -1.4880     1.5660 hn         1 7GC       0.344500
     29 H11          2.7020    -0.6130     1.9620 ha         1 7GC       0.156000
     30 H7          -6.1620     0.7940     1.4100 h4         1 7GC       0.041100
@<TRIPOS>BOND
     1     1    10 1   
     2     1    20 1   
     3     1    21 1   
     4     1    22 1   
     5     2    10 ar  
     6     2    16 ar  
     7     2    23 1   
     8     3     4 ar  
     9     3    17 ar  
    10     3    24 1   
    11     4    10 ar  
    12     4    25 1   
    13     5     6 2   
    14     5    14 1   
    15     5    30 1   
    16     6    13 1   
    17     6    26 1   
    18     7     9 1   
    19     7    18 1   
    20     7    27 1   
    21     8     9 2   
    22     9    12 2   
    23     9    17 1   
    24    11    18 1   
    25    11    19 1   
    26    11    28 1   
    27    13    19 1   
    28    14    19 2   
    29    15    18 2   
    30    16    17 ar  
    31    16    29 1   
@<TRIPOS>SUBSTRUCTURE
     1 7GC         1 TEMP              0 ****  ****    0 ROOT
