@<TRIPOS>MOLECULE
7GD
   28    30     1     0     0
SMALL
No Charge or Current Charge


@<TRIPOS>ATOM
      1 C05        -18.8650   -52.0400    41.1960 ca         1 7GD      -0.109000
      2 C06        -19.0290   -48.3060    42.4570 ca         1 7GD      -0.192000
      3 C01        -19.7980   -54.2280    40.6770 ca         1 7GD      -0.104000
      4 N14        -20.3720   -47.0090    40.8980 nb         1 7GD      -0.682000
      5 C11        -19.3160   -47.1600    41.6940 ca         1 7GD       0.594900
      6 C02        -20.6490   -54.1270    41.7900 ca         1 7GD      -0.106500
      7 C03        -18.9050   -53.1840    40.3800 ca         1 7GD      -0.106500
      8 C04        -20.6090   -52.9820    42.6060 ca         1 7GD      -0.109000
      9 C07        -19.7180   -51.9300    42.3110 ca         1 7GD      -0.095300
     10 C08        -19.9120   -49.4000    42.3880 ca         1 7GD       0.007700
     11 C09        -21.0140   -49.2150    41.5400 ca         1 7GD      -0.177200
     12 C10        -21.2120   -48.0600    40.8370 ca         1 7GD       0.459000
     13 N13        -22.0480   -50.0560    41.2350 na         1 7GD      -0.041400
     14 N15        -22.8860   -49.4080    40.3410 nc         1 7GD      -0.158400
     15 N16        -22.3820   -48.1970    40.1000 nd         1 7GD      -0.302000
     16 H1         -18.1710   -51.2360    40.9580 ha         1 7GD       0.115500
     17 H2         -18.1420   -48.3410    43.0830 ha         1 7GD       0.122000
     18 H3         -19.8300   -55.1130    40.0460 ha         1 7GD       0.117000
     19 H4         -21.3390   -54.9350    42.0220 ha         1 7GD       0.117000
     20 H5         -18.2450   -53.2620    39.5190 ha         1 7GD       0.117000
     21 H6         -21.2710   -52.9170    43.4670 ha         1 7GD       0.115500
     22 H7         -20.4300   -50.7450    43.9820 hc         1 7GD       0.063700
     23 H8         -18.7110   -50.6330    43.6980 hc         1 7GD       0.063700
     24 H9         -22.2170   -51.0050    41.5570 hn         1 7GD       0.387000
     25 H10        -18.9710   -45.2350    41.3010 hn         1 7GD       0.477500
     26 H11        -17.9220   -45.9240    42.4840 hn         1 7GD       0.477500
     27 C12        -19.6800   -50.6800    43.1850 c3         1 7GD       0.010200
     28 N17        -18.5440   -46.0650    41.6950 nv         1 7GD      -1.061900
@<TRIPOS>BOND
     1     1     7 ar  
     2     1     9 ar  
     3     1    16 1   
     4     2     5 ar  
     5     2    10 ar  
     6     2    17 1   
     7     3     6 ar  
     8     3     7 ar  
     9     3    18 1   
    10     4     5 ar  
    11     4    12 ar  
    12     5    28 1   
    13     6     8 ar  
    14     6    19 1   
    15     7    20 1   
    16     8     9 ar  
    17     8    21 1   
    18     9    27 1   
    19    10    11 ar  
    20    10    27 1   
    21    11    12 ar  
    22    11    13 1   
    23    12    15 1   
    24    13    14 1   
    25    13    24 1   
    26    14    15 2   
    27    22    27 1   
    28    23    27 1   
    29    25    28 1   
    30    26    28 1   
@<TRIPOS>SUBSTRUCTURE
     1 7GD         1 TEMP              0 ****  ****    0 ROOT
