@<TRIPOS>MOLECULE
7GD
   28    30     1     0     0
SMALL
abcg2


@<TRIPOS>ATOM
      1 C05        -18.8720   -52.0370    41.1940 ca         1 7GD      -0.109000
      2 C06        -19.0950   -48.3240    42.4270 ca         1 7GD      -0.192000
      3 C01        -19.8030   -54.2030    40.7070 ca         1 7GD      -0.104000
      4 N14        -20.4520   -47.0180    40.9010 nb         1 7GD      -0.682000
      5 C11        -19.3950   -47.1370    41.6790 ca         1 7GD       0.594900
      6 C02        -20.6290   -54.0900    41.8160 ca         1 7GD      -0.106500
      7 C03        -18.9240   -53.1710    40.3980 ca         1 7GD      -0.106500
      8 C04        -20.5760   -52.9510    42.6120 ca         1 7GD      -0.109000
      9 C07        -19.6970   -51.9150    42.3110 ca         1 7GD      -0.095300
     10 C08        -19.9040   -49.4250    42.3830 ca         1 7GD       0.007700
     11 C09        -21.0210   -49.2850    41.5380 ca         1 7GD      -0.177200
     12 C10        -21.2370   -48.0990    40.8480 ca         1 7GD       0.459000
     13 N13        -22.0640   -50.0590    41.1660 na         1 7GD      -0.041400
     14 N15        -22.8490   -49.4120    40.3260 nc         1 7GD      -0.158400
     15 N16        -22.3770   -48.2330    40.1190 nd         1 7GD      -0.302000
     16 H1         -18.1850   -51.2370    40.9440 ha         1 7GD       0.115500
     17 H2         -18.2040   -48.3360    43.0430 ha         1 7GD       0.122000
     18 H3         -19.8440   -55.0870    40.0840 ha         1 7GD       0.117000
     19 H4         -21.3180   -54.8870    42.0640 ha         1 7GD       0.117000
     20 H5         -18.2770   -53.2490    39.5340 ha         1 7GD       0.117000
     21 H6         -21.2260   -52.8690    43.4760 ha         1 7GD       0.115500
     22 H7         -20.3820   -50.7500    43.9680 hc         1 7GD       0.063700
     23 H8         -18.6660   -50.5930    43.6540 hc         1 7GD       0.063700
     24 H9         -22.2890   -51.0070    41.4280 hn         1 7GD       0.387000
     25 H10        -18.8440   -45.2080    41.3930 hn         1 7GD       0.477500
     26 H11        -17.8980   -46.0400    42.5270 hn         1 7GD       0.477500
     27 C12        -19.6410   -50.6750    43.1680 c3         1 7GD       0.010200
     28 N17        -18.5210   -46.0970    41.7390 nv         1 7GD      -1.061900
@<TRIPOS>BOND
     1     1     7 ar  
     2     1     9 ar  
     3     1    16 1   
     4     2     5 ar  
     5     2    10 ar  
     6     2    17 1   
     7     3     6 ar  
     8     3     7 ar  
     9     3    18 1   
    10     4     5 ar  
    11     4    12 ar  
    12     5    28 1   
    13     6     8 ar  
    14     6    19 1   
    15     7    20 1   
    16     8     9 ar  
    17     8    21 1   
    18     9    27 1   
    19    10    11 ar  
    20    10    27 1   
    21    11    12 ar  
    22    11    13 1   
    23    12    15 1   
    24    13    14 1   
    25    13    24 1   
    26    14    15 2   
    27    22    27 1   
    28    23    27 1   
    29    25    28 1   
    30    26    28 1   
@<TRIPOS>SUBSTRUCTURE
     1 7GD         1 TEMP              0 ****  ****    0 ROOT
