@<TRIPOS>MOLECULE
7GF
   33    34     1     0     0
SMALL
abcg2


@<TRIPOS>ATOM
      1 C2          -0.8440    -1.7020    -0.4590 c3         1 7GF       0.218000
      2 N3          -0.3130    -2.2580     0.7790 n8         1 7GF      -0.998200
      3 C4          -3.3520    -1.5880    -0.0870 c          1 7GF       0.603300
      4 C1          -2.0840    -0.8720    -0.2190 ce         1 7GF      -0.239400
      5 O5          -4.4380    -1.0630     0.0740 o          1 7GF      -0.501000
      6 O6          -3.2100    -2.9080    -0.1480 os         1 7GF      -0.441100
      7 C7          -4.3830    -3.7060    -0.0130 c3         1 7GF       0.154900
      8 C8          -2.1390     0.4810    -0.0790 c2         1 7GF       0.227200
      9 N9          -1.0710     1.3690    -0.0690 n          1 7GF      -0.160600
     10 C10         -1.3550     2.7190     0.0270 c          1 7GF       0.576000
     11 C11         -2.8280     2.9680     0.0820 c5         1 7GF      -0.123400
     12 S12         -3.6550     1.3660     0.1040 ss         1 7GF      -0.131600
     13 C13          0.3080     1.0080    -0.0170 ca         1 7GF      -0.048000
     14 C14          1.1070     1.1990    -1.1350 ca         1 7GF      -0.080500
     15 C15          2.4560     0.8900    -1.0800 ca         1 7GF      -0.083500
     16 C16          2.9870     0.3990     0.1050 ca         1 7GF      -0.014900
     17 C17          2.1980     0.2210     1.2300 ca         1 7GF      -0.083500
     18 C18          0.8480     0.5340     1.1660 ca         1 7GF      -0.080500
     19 BR           4.8220    -0.0300     0.1840 br         1 7GF      -0.093100
     20 O20         -0.5030     3.5710     0.0660 o          1 7GF      -0.481000
     21 H1          -4.0480    -4.7370    -0.0710 h1         1 7GF       0.048367
     22 H2          -4.8730    -3.5400     0.9460 h1         1 7GF       0.048367
     23 H3          -5.0940    -3.5140    -0.8170 h1         1 7GF       0.048367
     24 H4          -3.0690     3.5420     0.9770 h1         1 7GF       0.111700
     25 H5          -3.1370     3.5500    -0.7870 h1         1 7GF       0.111700
     26 H6           0.6780     1.5710    -2.0550 ha         1 7GF       0.133500
     27 H7           3.0740     1.0330    -1.9560 ha         1 7GF       0.134500
     28 H8           2.6140    -0.1590     2.1530 ha         1 7GF       0.134500
     29 H9           0.2200     0.3940     2.0340 ha         1 7GF       0.133500
     30 H10         -0.0680    -1.1030    -0.9230 h1         1 7GF       0.040700
     31 H11         -1.0880    -2.4620    -1.2090 h1         1 7GF       0.040700
     32 H12         -0.9070    -3.0160     1.0900 hn         1 7GF       0.398000
     33 H13          0.5880    -2.6780     0.5870 hn         1 7GF       0.398000
@<TRIPOS>BOND
     1     1     2 1   
     2     1     4 1   
     3     1    30 1   
     4     1    31 1   
     5     2    32 1   
     6     2    33 1   
     7     3     4 1   
     8     3     5 2   
     9     3     6 1   
    10     4     8 2   
    11     6     7 1   
    12     7    21 1   
    13     7    22 1   
    14     7    23 1   
    15     8     9 1   
    16     8    12 1   
    17     9    10 1   
    18     9    13 1   
    19    10    11 1   
    20    10    20 2   
    21    11    12 1   
    22    11    24 1   
    23    11    25 1   
    24    13    14 ar  
    25    13    18 ar  
    26    14    15 ar  
    27    14    26 1   
    28    15    16 ar  
    29    15    27 1   
    30    16    17 ar  
    31    16    19 1   
    32    17    18 ar  
    33    17    28 1   
    34    18    29 1   
@<TRIPOS>SUBSTRUCTURE
     1 7GF         1 TEMP              0 ****  ****    0 ROOT
