@<TRIPOS>MOLECULE
7GF
   33    34     1     0     0
SMALL
No Charge or Current Charge


@<TRIPOS>ATOM
      1 C2          -1.0670    -1.5330    -0.8170 c3         1 7GF       0.218000
      2 N3          -0.3140    -2.4240     0.0780 n8         1 7GF      -0.998200
      3 C4          -3.3840    -1.6140     0.2890 c          1 7GF       0.603300
      4 C1          -2.1580    -0.7910    -0.0510 ce         1 7GF      -0.239400
      5 O5          -4.3680    -1.2030     0.8870 o          1 7GF      -0.501000
      6 O6          -3.2780    -2.9180    -0.1320 os         1 7GF      -0.441100
      7 C7          -4.3730    -3.8150     0.1310 c3         1 7GF       0.154900
      8 C8          -2.0710     0.5490     0.2210 c2         1 7GF       0.227200
      9 N9          -0.9970     1.4390    -0.0650 n          1 7GF      -0.160600
     10 C10         -1.3550     2.7910    -0.2880 c          1 7GF       0.576000
     11 C11         -2.8660     2.9340    -0.1440 c5         1 7GF      -0.123400
     12 S12         -3.3650     1.5460     0.9510 ss         1 7GF      -0.131600
     13 C13          0.3930     1.0850     0.0870 ca         1 7GF      -0.048000
     14 C14          1.3410     1.4330    -0.8980 ca         1 7GF      -0.080500
     15 C15          2.6940     1.0910    -0.7350 ca         1 7GF      -0.083500
     16 C16          3.1080     0.3990     0.4150 ca         1 7GF      -0.014900
     17 C17          2.1730     0.0490     1.4020 ca         1 7GF      -0.083500
     18 C18          0.8190     0.3900     1.2380 ca         1 7GF      -0.080500
     19 Br           4.9500    -0.0680     0.6370 br         1 7GF      -0.093100
     20 O20         -0.5650     3.7040    -0.4980 o          1 7GF      -0.481000
     21 H1          -4.1510    -4.8150    -0.2610 h1         1 7GF       0.048367
     22 H2          -4.5550    -3.9060     1.2100 h1         1 7GF       0.048367
     23 H3          -5.2950    -3.4600    -0.3490 h1         1 7GF       0.048367
     24 H4          -3.1180     3.9070     0.2940 h1         1 7GF       0.111700
     25 H5          -3.3240     2.8280    -1.1340 h1         1 7GF       0.111700
     26 H6           1.0310     1.9620    -1.7970 ha         1 7GF       0.133500
     27 H7           3.4190     1.3600    -1.5000 ha         1 7GF       0.134500
     28 H8           2.4930    -0.4890     2.2910 ha         1 7GF       0.134500
     29 H9           0.1010     0.1130     2.0070 ha         1 7GF       0.133500
     30 H10         -0.3730    -0.8370    -1.3040 h1         1 7GF       0.040700
     31 H11         -1.5130    -2.1330    -1.6230 h1         1 7GF       0.040700
     32 H12         -0.9610    -3.1450     0.4150 hn         1 7GF       0.398000
     33 H13          0.3680    -2.9510    -0.4780 hn         1 7GF       0.398000
@<TRIPOS>BOND
     1     1     2 1   
     2     1     4 1   
     3     1    30 1   
     4     1    31 1   
     5     2    32 1   
     6     2    33 1   
     7     3     4 1   
     8     3     5 2   
     9     3     6 1   
    10     4     8 2   
    11     6     7 1   
    12     7    21 1   
    13     7    22 1   
    14     7    23 1   
    15     8     9 1   
    16     8    12 1   
    17     9    10 1   
    18     9    13 1   
    19    10    11 1   
    20    10    20 2   
    21    11    12 1   
    22    11    24 1   
    23    11    25 1   
    24    13    14 ar  
    25    13    18 ar  
    26    14    15 ar  
    27    14    26 1   
    28    15    16 ar  
    29    15    27 1   
    30    16    17 ar  
    31    16    19 1   
    32    17    18 ar  
    33    17    28 1   
    34    18    29 1   
@<TRIPOS>SUBSTRUCTURE
     1 7GF         1 TEMP              0 ****  ****    0 ROOT
