@<TRIPOS>MOLECULE
7GK
   40    43     1     0     0
SMALL
bcc


@<TRIPOS>ATOM
      1 CAR         -4.7900     1.3570     0.0410 c6         1 7GK       0.163300
      2 CAS         -6.2500     1.2990    -0.3940 c6         1 7GK       0.141300
      3 NAT         -7.0300     0.2780     0.2760 n7         1 7GK      -0.783200
      4 CAU         -6.3710    -1.0070     0.1420 c6         1 7GK       0.141300
      5 CAV         -4.9170    -1.0050     0.5930 c6         1 7GK       0.163300
      6 NAQ         -4.1580     0.0530    -0.0650 nh         1 7GK      -0.651000
      7 CAN         -2.7790    -0.0140    -0.0370 ca         1 7GK       0.186600
      8 CAO         -2.1070    -1.2450    -0.1600 ca         1 7GK      -0.192500
      9 CAP         -0.7300    -1.3180    -0.1590 ca         1 7GK      -0.071500
     10 CAM         -1.9740     1.1330     0.0870 ca         1 7GK      -0.192500
     11 CAL         -0.5960     1.0480     0.0830 ca         1 7GK      -0.071500
     12 CAJ          0.0650    -0.1740    -0.0350 ca         1 7GK      -0.096800
     13 CAH          1.5160    -0.2320    -0.0280 cc         1 7GK       0.041700
     14 CAI          2.4260     0.7820    -0.2430 cd         1 7GK      -0.184200
     15 CAE          3.7130     0.2100    -0.1260 ca         1 7GK      -0.163100
     16 CAD          5.0360     0.6460    -0.2250 ca         1 7GK       0.055000
     17 CAK          5.3300     2.0090    -0.5180 cg         1 7GK       0.238800
     18 NAW          5.5540     3.1140    -0.7550 n1         1 7GK      -0.359800
     19 CAA          6.0560    -0.2810    -0.0250 ca         1 7GK      -0.234300
     20 CAB          5.7300    -1.6040     0.2620 ca         1 7GK       0.413200
     21 NAC          4.4840    -2.0580     0.3570 nb         1 7GK      -0.668000
     22 CAF          3.5360    -1.1680     0.1640 ca         1 7GK       0.432800
     23 NAG          2.1970    -1.3990     0.2090 na         1 7GK      -0.271100
     24 H1          -4.2760     2.0680    -0.6070 h1         1 7GK       0.043950
     25 H2          -4.7260     1.7450     1.0690 h1         1 7GK       0.043950
     26 H3          -6.7010     2.2770    -0.2200 h1         1 7GK       0.063450
     27 H4          -6.2940     1.1120    -1.4720 h1         1 7GK       0.063450
     28 H5          -7.1150     0.5110     1.2590 hn         1 7GK       0.349800
     29 H7          -6.9150    -1.7600     0.7150 h1         1 7GK       0.063450
     30 H8          -6.4170    -1.3080    -0.9100 h1         1 7GK       0.063450
     31 H9          -4.8680    -0.8800     1.6850 h1         1 7GK       0.043950
     32 H10         -4.4900    -1.9790     0.3640 h1         1 7GK       0.043950
     33 H11         -2.6620    -2.1630    -0.2870 ha         1 7GK       0.134500
     34 H12         -0.2800    -2.2960    -0.2840 ha         1 7GK       0.130000
     35 H13         -2.4160     2.1100     0.2180 ha         1 7GK       0.134500
     36 H14         -0.0250     1.9610     0.2060 ha         1 7GK       0.130000
     37 H15          2.1890     1.8060    -0.4830 ha         1 7GK       0.165000
     38 H16          7.0930     0.0160    -0.0920 ha         1 7GK       0.151000
     39 H17          6.5220    -2.3250     0.4200 h4         1 7GK       0.025100
     40 H18          1.7850    -2.2840     0.4610 hn         1 7GK       0.312700
@<TRIPOS>BOND
     1     1     2 1   
     2     1     6 1   
     3     1    24 1   
     4     1    25 1   
     5     2     3 1   
     6     2    26 1   
     7     2    27 1   
     8     3     4 1   
     9     3    28 1   
    10     4     5 1   
    11     4    29 1   
    12     4    30 1   
    13     5     6 1   
    14     5    31 1   
    15     5    32 1   
    16     6     7 1   
    17     7     8 ar  
    18     7    10 ar  
    19     8     9 ar  
    20     8    33 1   
    21     9    12 ar  
    22     9    34 1   
    23    10    11 ar  
    24    10    35 1   
    25    11    12 ar  
    26    11    36 1   
    27    12    13 1   
    28    13    14 2   
    29    13    23 1   
    30    14    15 1   
    31    14    37 1   
    32    15    16 ar  
    33    15    22 ar  
    34    16    17 1   
    35    16    19 ar  
    36    17    18 3   
    37    19    20 ar  
    38    19    38 1   
    39    20    21 ar  
    40    20    39 1   
    41    21    22 ar  
    42    22    23 1   
    43    23    40 1   
@<TRIPOS>SUBSTRUCTURE
     1 7GK         1 TEMP              0 ****  ****    0 ROOT
