@<TRIPOS>MOLECULE
7GK
   40    43     1     0     0
SMALL
No Charge or Current Charge


@<TRIPOS>ATOM
      1 CAR         -4.8560     1.3850    -0.2870 c6         1 7GK       0.163300
      2 CAS         -6.3310     1.1790    -0.7680 c6         1 7GK       0.141300
      3 NAT         -7.1330     0.3430     0.1730 n7         1 7GK      -0.838400
      4 CAU         -6.4600    -0.9670     0.4130 c6         1 7GK       0.141300
      5 CAV         -4.9890    -0.8090     0.9200 c6         1 7GK       0.163300
      6 NAQ         -4.1710     0.0940     0.0450 nh         1 7GK      -0.789400
      7 CAN         -2.7580    -0.0100     0.0440 ca         1 7GK       0.325000
      8 CAO         -2.1450    -1.2500    -0.2040 ca         1 7GK      -0.174500
      9 CAP         -0.7450    -1.3740    -0.2110 ca         1 7GK      -0.053500
     10 CAM         -1.9400     1.1100     0.2830 ca         1 7GK      -0.174500
     11 CAL         -0.5390     0.9920     0.2770 ca         1 7GK      -0.053500
     12 CAJ          0.0770    -0.2530     0.0270 ca         1 7GK      -0.096800
     13 CAH          1.5370    -0.4040     0.0180 cc         1 7GK       0.041700
     14 CAI          2.4530     0.6310    -0.0010 cd         1 7GK      -0.234200
     15 CAE          3.7880     0.0780    -0.0390 ca         1 7GK      -0.097800
     16 CAD          5.0480     0.6940    -0.0660 ca         1 7GK       0.055000
     17 CAK          5.2040     2.1240    -0.0570 cg         1 7GK       0.328000
     18 NAW          5.3420     3.2840    -0.0490 n1         1 7GK      -0.449000
     19 CAA          6.1560    -0.1750    -0.1030 ca         1 7GK      -0.151000
     20 CAB          5.9390    -1.5700    -0.1110 ca         1 7GK       0.347900
     21 NAC          4.7040    -2.1350    -0.0850 nb         1 7GK      -0.668000
     22 CAF          3.6530    -1.2950    -0.0500 ca         1 7GK       0.367500
     23 NAG          2.3020    -1.5810    -0.0210 na         1 7GK      -0.321400
     24 H1          -4.3070     1.9120    -1.0820 h1         1 7GK       0.043950
     25 H2          -4.8600     2.0400     0.5970 h1         1 7GK       0.043950
     26 H3          -6.8100     2.1610    -0.8970 h1         1 7GK       0.063450
     27 H4          -6.3120     0.6950    -1.7560 h1         1 7GK       0.063450
     28 H5          -7.1850     0.8400     1.0710 hn         1 7GK       0.405000
     29 H7          -7.0350    -1.5530     1.1470 h1         1 7GK       0.063450
     30 H8          -6.4480    -1.5460    -0.5230 h1         1 7GK       0.063450
     31 H9          -5.0090    -0.4050     1.9430 h1         1 7GK       0.043950
     32 H10         -4.5380    -1.8090     0.9820 h1         1 7GK       0.043950
     33 H11         -2.7560    -2.1240    -0.4060 ha         1 7GK       0.116500
     34 H12         -0.3040    -2.3470    -0.4120 ha         1 7GK       0.112000
     35 H13         -2.3830     2.0790     0.4890 ha         1 7GK       0.116500
     36 H14          0.0570     1.8770     0.4800 ha         1 7GK       0.112000
     37 H15          2.2130     1.6900    -0.0080 ha         1 7GK       0.215000
     38 H16          7.1710     0.2130    -0.1250 ha         1 7GK       0.133000
     39 H17          6.7840    -2.2580    -0.1390 h4         1 7GK       0.025100
     40 H18          1.9320    -2.5210    -0.0240 hn         1 7GK       0.363000
@<TRIPOS>BOND
     1     1     2 1   
     2     1     6 1   
     3     1    24 1   
     4     1    25 1   
     5     2     3 1   
     6     2    26 1   
     7     2    27 1   
     8     3     4 1   
     9     3    28 1   
    10     4     5 1   
    11     4    29 1   
    12     4    30 1   
    13     5     6 1   
    14     5    31 1   
    15     5    32 1   
    16     6     7 1   
    17     7     8 ar  
    18     7    10 ar  
    19     8     9 ar  
    20     8    33 1   
    21     9    12 ar  
    22     9    34 1   
    23    10    11 ar  
    24    10    35 1   
    25    11    12 ar  
    26    11    36 1   
    27    12    13 1   
    28    13    14 2   
    29    13    23 1   
    30    14    15 1   
    31    14    37 1   
    32    15    16 ar  
    33    15    22 ar  
    34    16    17 1   
    35    16    19 ar  
    36    17    18 3   
    37    19    20 ar  
    38    19    38 1   
    39    20    21 ar  
    40    20    39 1   
    41    21    22 ar  
    42    22    23 1   
    43    23    40 1   
@<TRIPOS>SUBSTRUCTURE
     1 7GK         1 TEMP              0 ****  ****    0 ROOT
