@<TRIPOS>MOLECULE
7GL
   41    43     1     0     0
SMALL
No Charge or Current Charge


@<TRIPOS>ATOM
      1 C13          3.2170     1.5950    -0.5360 ca         1 7GL      -0.145000
      2 C18          3.8150    -2.0950     1.6510 c3         1 7GL      -0.048800
      3 C17          2.3180    -0.2490     0.7580 ca         1 7GL      -0.145000
      4 C16          3.6070    -0.8020     0.8790 ca         1 7GL      -0.049800
      5 C15          4.6990    -0.1490     0.2790 ca         1 7GL      -0.127000
      6 C19          5.6960     1.7600    -1.0650 c3         1 7GL      -0.048800
      7 C21         -3.8430     3.9110     0.3740 c3         1 7GL       0.210100
      8 C11         -1.6240    -3.1720    -0.4630 c          1 7GL       0.653300
      9 C12          2.1120     0.9440     0.0380 ca         1 7GL       0.302000
     10 C1          -2.9680     0.2410    -0.0350 cc         1 7GL      -0.179000
     11 N2          -1.9060    -0.6020    -0.1740 na         1 7GL       0.311900
     12 N3          -0.5810    -0.2350    -0.1990 nc         1 7GL      -0.633800
     13 C4          -0.4230     1.0730    -0.0560 cd         1 7GL       0.647900
     14 C5          -1.4400     2.0620     0.0760 cd         1 7GL      -0.361000
     15 C6          -2.7310     1.6340     0.0930 cc         1 7GL       0.453000
     16 N7          -4.0970    -0.4540    -0.0510 nd         1 7GL      -0.293600
     17 C8          -3.7110    -1.7810    -0.2080 cd         1 7GL       0.003600
     18 C9          -2.3350    -1.8950    -0.2900 cc         1 7GL      -0.214300
     19 N10          0.8500     1.5330    -0.0940 nu         1 7GL      -0.944900
     20 C14          4.5110     1.0540    -0.4240 ca         1 7GL      -0.049800
     21 N20         -3.8290     2.4460     0.2230 nu         1 7GL      -0.938200
     22 N22         -0.2830    -3.1010    -0.5310 nt         1 7GL      -0.603000
     23 O23         -2.1810    -4.2540    -0.5450 o          1 7GL      -0.617100
     24 H27          3.0700     2.5210    -1.0840 ha         1 7GL       0.121000
     25 H31          3.6870    -2.9650     0.9970 hc         1 7GL       0.044367
     26 H32          4.8220    -2.1470     2.0830 hc         1 7GL       0.044367
     27 H30          3.0990    -2.1880     2.4770 hc         1 7GL       0.044367
     28 H29          1.4850    -0.7440     1.2440 ha         1 7GL       0.121000
     29 H28          5.6960    -0.5750     0.3650 ha         1 7GL       0.114000
     30 H33          5.8370     1.4230    -2.0990 hc         1 7GL       0.044367
     31 H34          5.5510     2.8470    -1.0830 hc         1 7GL       0.044367
     32 H35          6.6250     1.5610    -0.5180 hc         1 7GL       0.044367
     33 H37         -3.3740     4.3930    -0.4950 h1         1 7GL       0.045033
     34 H38         -4.8740     4.2800     0.4600 h1         1 7GL       0.045033
     35 H39         -3.2930     4.2100     1.2770 h1         1 7GL       0.045033
     36 H24         -1.1950     3.1100     0.1700 ha         1 7GL       0.130000
     37 H25         -4.4440    -2.5840    -0.2560 h4         1 7GL       0.245000
     38 H26          0.8730     2.5230    -0.3180 hn         1 7GL       0.499000
     39 H36         -4.7190     1.9410     0.2150 hn         1 7GL       0.526000
     40 H41          0.2590    -3.9420    -0.6510 hn         1 7GL       0.331000
     41 H40          0.1550    -2.1920    -0.4670 hn         1 7GL       0.331000
@<TRIPOS>BOND
     1     1     9 ar  
     2     1    20 ar  
     3     1    24 1   
     4     2     4 1   
     5     2    25 1   
     6     2    26 1   
     7     2    27 1   
     8     3     4 ar  
     9     3     9 ar  
    10     3    28 1   
    11     4     5 ar  
    12     5    20 ar  
    13     5    29 1   
    14     6    20 1   
    15     6    30 1   
    16     6    31 1   
    17     6    32 1   
    18     7    21 1   
    19     7    33 1   
    20     7    34 1   
    21     7    35 1   
    22     8    18 1   
    23     8    22 1   
    24     8    23 2   
    25     9    19 1   
    26    10    11 1   
    27    10    15 1   
    28    10    16 2   
    29    11    12 1   
    30    11    18 1   
    31    12    13 2   
    32    13    14 1   
    33    13    19 1   
    34    14    15 2   
    35    14    36 1   
    36    15    21 1   
    37    16    17 1   
    38    17    18 2   
    39    17    37 1   
    40    19    38 1   
    41    21    39 1   
    42    22    40 1   
    43    22    41 1   
@<TRIPOS>SUBSTRUCTURE
     1 7GL         1 TEMP              0 ****  ****    0 ROOT
