@<TRIPOS>MOLECULE
7GL
   41    43     1     0     0
SMALL
bcc


@<TRIPOS>ATOM
      1 C13          3.1460     1.5780    -0.4440 ca         1 7GL      -0.163000
      2 C18          3.6610    -2.1640     1.5800 c3         1 7GL      -0.048800
      3 C17          2.2530    -0.2070     0.9040 ca         1 7GL      -0.163000
      4 C16          3.4850    -0.8530     0.8680 ca         1 7GL      -0.049800
      5 C15          4.5420    -0.2660     0.1790 ca         1 7GL      -0.145000
      6 C19          5.5270     1.5700    -1.2330 c3         1 7GL      -0.048800
      7 C21         -3.8600     3.8090     0.2740 c3         1 7GL       0.210100
      8 C11         -1.3140    -3.0260    -0.4130 c          1 7GL       0.720300
      9 C12          2.0740     1.0040     0.2380 ca         1 7GL       0.163600
     10 C1          -2.9070     0.2210    -0.1010 cc         1 7GL      -0.128300
     11 N2          -1.7820    -0.5310    -0.1330 na         1 7GL       0.261200
     12 N3          -0.5180    -0.0980    -0.0270 nc         1 7GL      -0.633800
     13 C4          -0.3950     1.1960     0.1480 cd         1 7GL       0.713200
     14 C5          -1.4830     2.1050     0.2050 cd         1 7GL      -0.444300
     15 C6          -2.7720     1.6340     0.0740 cc         1 7GL       0.314600
     16 N7          -3.9980    -0.5170    -0.2380 nd         1 7GL      -0.293600
     17 C8          -3.5510    -1.7780    -0.3620 cd         1 7GL       0.053600
     18 C9          -2.1720    -1.8360    -0.3010 cc         1 7GL      -0.214300
     19 N10          0.8650     1.7080     0.2780 nu         1 7GL      -0.751300
     20 C14          4.3870     0.9540    -0.4750 ca         1 7GL      -0.049800
     21 N20         -3.8770     2.3800     0.1060 nu         1 7GL      -0.744600
     22 N22          0.0110    -2.8280    -0.3780 nt         1 7GL      -0.670000
     23 O23         -1.8350    -4.1290    -0.5370 o          1 7GL      -0.617100
     24 H27          3.0050     2.5230    -0.9570 ha         1 7GL       0.139000
     25 H31          3.0950    -2.9590     1.0900 hc         1 7GL       0.044367
     26 H32          4.7060    -2.4690     1.6000 hc         1 7GL       0.044367
     27 H30          3.3080    -2.1080     2.6100 hc         1 7GL       0.044367
     28 H29          1.4430    -0.6390     1.4750 ha         1 7GL       0.139000
     29 H28          5.5060    -0.7610     0.1630 ha         1 7GL       0.132000
     30 H33          5.4550     1.3440    -2.2990 hc         1 7GL       0.044367
     31 H34          5.5340     2.6560    -1.1350 hc         1 7GL       0.044367
     32 H35          6.4880     1.1930    -0.8850 hc         1 7GL       0.044367
     33 H37         -3.2950     4.3000    -0.5230 h1         1 7GL       0.045033
     34 H38         -4.8810     4.1750     0.2440 h1         1 7GL       0.045033
     35 H39         -3.4180     4.0970     1.2310 h1         1 7GL       0.045033
     36 H24         -1.2830     3.1560     0.3570 ha         1 7GL       0.148000
     37 H25         -4.2240    -2.6110    -0.4940 h4         1 7GL       0.195000
     38 H26          0.9390     2.7030     0.1370 hn         1 7GL       0.443800
     39 H36         -4.7620     1.9150    -0.0110 hn         1 7GL       0.470800
     40 H41          0.6320    -3.6110    -0.4940 hn         1 7GL       0.331000
     41 H40          0.3970    -1.8950    -0.3060 hn         1 7GL       0.331000
@<TRIPOS>BOND
     1     1     9 ar  
     2     1    20 ar  
     3     1    24 1   
     4     2     4 1   
     5     2    25 1   
     6     2    26 1   
     7     2    27 1   
     8     3     4 ar  
     9     3     9 ar  
    10     3    28 1   
    11     4     5 ar  
    12     5    20 ar  
    13     5    29 1   
    14     6    20 1   
    15     6    30 1   
    16     6    31 1   
    17     6    32 1   
    18     7    21 1   
    19     7    33 1   
    20     7    34 1   
    21     7    35 1   
    22     8    18 1   
    23     8    22 1   
    24     8    23 2   
    25     9    19 1   
    26    10    11 1   
    27    10    15 1   
    28    10    16 2   
    29    11    12 1   
    30    11    18 1   
    31    12    13 2   
    32    13    14 1   
    33    13    19 1   
    34    14    15 2   
    35    14    36 1   
    36    15    21 1   
    37    16    17 1   
    38    17    18 2   
    39    17    37 1   
    40    19    38 1   
    41    21    39 1   
    42    22    40 1   
    43    22    41 1   
@<TRIPOS>SUBSTRUCTURE
     1 7GL         1 TEMP              0 ****  ****    0 ROOT
