@<TRIPOS>MOLECULE
7GM
   42    44     1     0     0
SMALL
abcg2


@<TRIPOS>ATOM
      1 C13         -1.7250    -0.4320     0.9570 ca         1 7GM      -0.165000
      2 C17         -1.9880    -0.0920    -1.3980 ca         1 7GM      -0.165000
      3 C14         -3.0410    -0.0360     1.1450 ca         1 7GM      -0.072000
      4 C16         -3.3010     0.3030    -1.2050 ca         1 7GM      -0.072000
      5 C12         -1.1780    -0.4670    -0.3260 ca         1 7GM       0.154100
      6 C15         -3.8490     0.3350     0.0750 ca         1 7GM      -0.129000
      7 C9           6.5020     1.3720    -0.5800 cx         1 7GM      -0.133400
      8 C10          5.7440     1.6480     0.6830 cx         1 7GM      -0.133400
      9 C3           1.3500    -0.2620     1.4030 c5         1 7GM      -0.106400
     10 C4           2.8200     0.0900     1.1900 c5         1 7GM       0.159800
     11 C6           2.3550    -1.4050    -0.4610 c5         1 7GM       0.163800
     12 C8           5.0100     1.2500    -0.5610 cx         1 7GM      -0.121700
     13 C2           1.0310    -1.3100     0.3080 c5         1 7GM       0.190000
     14 C1           0.6170    -2.6780     0.8320 c3         1 7GM      -0.115100
     15 C19         -6.1840     1.2670    -1.1620 c3         1 7GM       0.023900
     16 N5           3.0110    -0.1370    -0.2300 n3         1 7GM      -0.705600
     17 O11          0.0820    -0.8210    -0.6490 os         1 7GM      -0.344100
     18 S18         -5.5090     0.8080     0.4430 ss         1 7GM      -0.175000
     19 H13         -1.1530    -0.7030     1.8330 ha         1 7GM       0.121500
     20 H14         -3.4330    -0.0190     2.1560 ha         1 7GM       0.116000
     21 H17         -1.5810    -0.1120    -2.4020 ha         1 7GM       0.121500
     22 H16         -3.8820     0.5840    -2.0720 ha         1 7GM       0.116000
     23 H92C         7.0850     0.4600    -0.6320 hc         1 7GM       0.069700
     24 H101         5.8150     0.9220     1.4840 hc         1 7GM       0.069700
     25 H102         5.6620     2.6730     1.0210 hc         1 7GM       0.069700
     26 H8           4.4590     2.0380    -1.0650 hc         1 7GM       0.090700
     27 H31C         1.1620    -0.6420     2.4080 hc         1 7GM       0.061200
     28 H32C         0.7320     0.6280     1.2780 hc         1 7GM       0.061200
     29 H41C         3.0500     1.1170     1.4730 h1         1 7GM       0.039200
     30 H42C         3.4650    -0.5720     1.7940 h1         1 7GM       0.039200
     31 H61C         2.9420    -2.2440    -0.0480 h1         1 7GM       0.049200
     32 H62C         2.2070    -1.6060    -1.5240 h1         1 7GM       0.049200
     33 H11C        -0.3420    -2.6670     1.3490 hc         1 7GM       0.048033
     34 H12C         0.5510    -3.4010     0.0170 hc         1 7GM       0.048033
     35 H13C         1.3640    -3.0410     1.5380 hc         1 7GM       0.048033
     36 H191        -7.2090     1.5830    -0.9770 h1         1 7GM       0.063700
     37 H192        -5.6400     2.0990    -1.6050 h1         1 7GM       0.063700
     38 H193        -6.2010     0.4240    -1.8510 h1         1 7GM       0.063700
     39 C7           4.3840    -0.1140    -0.6800 c3         1 7GM       0.201800
     40 H91C         6.9420     2.2070    -1.1090 hc         1 7GM       0.069700
     41 H71C         4.3960    -0.4220    -1.7300 h1         1 7GM       0.032200
     42 H72C         5.0010    -0.8490    -0.1310 h1         1 7GM       0.032200
@<TRIPOS>BOND
     1     1     3 ar  
     2     1     5 ar  
     3     1    19 1   
     4     2     4 ar  
     5     2     5 ar  
     6     2    21 1   
     7     3     6 ar  
     8     3    20 1   
     9     4     6 ar  
    10     4    22 1   
    11     5    17 1   
    12     6    18 1   
    13     7     8 1   
    14     7    12 1   
    15     7    23 1   
    16     7    40 1   
    17     8    12 1   
    18     8    24 1   
    19     8    25 1   
    20     9    10 1   
    21     9    13 1   
    22     9    27 1   
    23     9    28 1   
    24    10    16 1   
    25    10    29 1   
    26    10    30 1   
    27    11    13 1   
    28    11    16 1   
    29    11    31 1   
    30    11    32 1   
    31    12    26 1   
    32    12    39 1   
    33    13    14 1   
    34    13    17 1   
    35    14    33 1   
    36    14    34 1   
    37    14    35 1   
    38    15    18 1   
    39    15    36 1   
    40    15    37 1   
    41    15    38 1   
    42    16    39 1   
    43    39    41 1   
    44    39    42 1   
@<TRIPOS>SUBSTRUCTURE
     1 7GM         1 TEMP              0 ****  ****    0 ROOT
