@<TRIPOS>MOLECULE
7GM
   42    44     1     0     0
SMALL
No Charge or Current Charge


@<TRIPOS>ATOM
      1 C13         -1.6830     1.3670     0.3380 ca         1 7GM      -0.165000
      2 C17         -2.2560    -0.2930    -1.3400 ca         1 7GM      -0.165000
      3 C14         -3.0120     1.3590     0.7950 ca         1 7GM      -0.072000
      4 C16         -3.5850    -0.3040    -0.8840 ca         1 7GM      -0.072000
      5 C12         -1.2930     0.5160    -0.7120 ca         1 7GM       0.154100
      6 C15         -3.9680     0.5200     0.1960 ca         1 7GM      -0.129000
      7 C9           7.0940     0.4100     0.3440 cx         1 7GM      -0.133400
      8 C10          6.1800     0.2840     1.5400 cx         1 7GM      -0.133400
      9 C3           1.2990     0.3760     0.8960 c5         1 7GM      -0.106400
     10 C4           2.7770    -0.0440     1.0400 c5         1 7GM       0.159800
     11 C6           2.2620    -0.3660    -1.2180 c5         1 7GM       0.163800
     12 C8           5.6440     0.8240     0.2330 cx         1 7GM      -0.121700
     13 C2           0.8930    -0.3410    -0.4340 c5         1 7GM       0.190000
     14 C1           0.3200    -1.7770    -0.2450 c3         1 7GM      -0.115100
     15 C19         -6.5800    -0.7250    -0.1060 c3         1 7GM       0.023900
     16 N5           3.2460     0.2970    -0.3170 n3         1 7GM      -0.705600
     17 O11         -0.0020     0.5330    -1.2050 os         1 7GM      -0.344100
     18 S18         -5.6480     0.5640     0.8350 ss         1 7GM      -0.175000
     19 H13         -0.9670     2.0420     0.7950 ha         1 7GM       0.121500
     20 H14         -3.3020     2.0130     1.6150 ha         1 7GM       0.116000
     21 H17         -1.9670    -0.9210    -2.1790 ha         1 7GM       0.121500
     22 H16         -4.3000    -0.9510    -1.3840 ha         1 7GM       0.116000
     23 H92C         7.4040    -0.5060    -0.1540 hc         1 7GM       0.069700
     24 H101         5.8760    -0.7150     1.8430 hc         1 7GM       0.069700
     25 H102         6.3140     0.9870     2.3590 hc         1 7GM       0.069700
     26 H8           5.4470     1.8930     0.1840 hc         1 7GM       0.090700
     27 H31C         0.6940     0.0610     1.7530 hc         1 7GM       0.061200
     28 H32C         1.2260     1.4660     0.8170 hc         1 7GM       0.061200
     29 H41C         3.2900     0.5310     1.8230 h1         1 7GM       0.039200
     30 H42C         2.8870    -1.1150     1.2610 h1         1 7GM       0.039200
     31 H61C         2.5630    -1.4020    -1.4300 h1         1 7GM       0.049200
     32 H62C         2.1950     0.1520    -2.1850 h1         1 7GM       0.049200
     33 H11C        -0.5470    -1.7870     0.4260 hc         1 7GM       0.048033
     34 H12C         0.0180    -2.2120    -1.2050 hc         1 7GM       0.048033
     35 H13C         1.0700    -2.4440     0.1940 hc         1 7GM       0.048033
     36 H191        -7.6130    -0.7670     0.2600 h1         1 7GM       0.063700
     37 H192        -6.5900    -0.4730    -1.1740 h1         1 7GM       0.063700
     38 H193        -6.1090    -1.7050     0.0370 h1         1 7GM       0.063700
     39 C7           4.6650     0.0210    -0.6190 c3         1 7GM       0.201800
     40 H91C         7.8450     1.1960     0.3590 hc         1 7GM       0.069700
     41 H71C         4.8630     0.2610    -1.6720 h1         1 7GM       0.032200
     42 H72C         4.8720    -1.0510    -0.4900 h1         1 7GM       0.032200
@<TRIPOS>BOND
     1     1     3 ar  
     2     1     5 ar  
     3     1    19 1   
     4     2     4 ar  
     5     2     5 ar  
     6     2    21 1   
     7     3     6 ar  
     8     3    20 1   
     9     4     6 ar  
    10     4    22 1   
    11     5    17 1   
    12     6    18 1   
    13     7     8 1   
    14     7    12 1   
    15     7    23 1   
    16     7    40 1   
    17     8    12 1   
    18     8    24 1   
    19     8    25 1   
    20     9    10 1   
    21     9    13 1   
    22     9    27 1   
    23     9    28 1   
    24    10    16 1   
    25    10    29 1   
    26    10    30 1   
    27    11    13 1   
    28    11    16 1   
    29    11    31 1   
    30    11    32 1   
    31    12    26 1   
    32    12    39 1   
    33    13    14 1   
    34    13    17 1   
    35    14    33 1   
    36    14    34 1   
    37    14    35 1   
    38    15    18 1   
    39    15    36 1   
    40    15    37 1   
    41    15    38 1   
    42    16    39 1   
    43    39    41 1   
    44    39    42 1   
@<TRIPOS>SUBSTRUCTURE
     1 7GM         1 TEMP              0 ****  ****    0 ROOT
