@<TRIPOS>MOLECULE
7GP
   36    36     1     0     0
SMALL
bcc


@<TRIPOS>ATOM
      1 C1          -0.5810    -0.2470    -0.2270 c6         1 7GP       0.281500
      2 C2          -1.3810    -1.5130     0.0860 c6         1 7GP       0.075100
      3 O2          -0.8550    -2.6280    -0.5860 oh         1 7GP      -0.592800
      4 C3          -2.8170    -1.3170    -0.3810 c6         1 7GP       0.116100
      5 O3          -3.6460    -2.3840     0.0090 oh         1 7GP      -0.602800
      6 C4          -3.4050    -0.0400     0.2080 c6         1 7GP       0.120100
      7 O4          -4.6690     0.2410    -0.3390 oh         1 7GP      -0.592800
      8 C5          -2.4830     1.1410    -0.1020 c6         1 7GP       0.155100
      9 O5          -1.1820     0.8700     0.3800 os         1 7GP      -0.411600
     10 C6          -2.9580     2.4210     0.5530 c3         1 7GP       0.149400
     11 O6          -2.1140     3.4730     0.1530 oh         1 7GP      -0.584800
     12 N1           0.7510    -0.3570     0.2760 ns         1 7GP      -0.556900
     13 C7           1.8370     0.0530    -0.3960 c          1 7GP       0.624100
     14 O7           1.8570     0.5160    -1.5150 o          1 7GP      -0.530100
     15 C8           3.1270    -0.1340     0.4190 c          1 7GP       0.562100
     16 O8           3.1280    -0.5280     1.5570 o          1 7GP      -0.543000
     17 C9           5.4700     0.1010     0.3460 c3         1 7GP       0.140400
     18 O9           4.1750     0.1940    -0.2850 os         1 7GP      -0.377900
     19 C10          6.5060     0.5210    -0.6650 c3         1 7GP      -0.097100
     20 H1          -0.5280    -0.1140    -1.3150 h2         1 7GP       0.087700
     21 H2          -1.3810    -1.6630     1.1770 h1         1 7GP       0.054700
     22 HO2         -0.0860    -2.9500    -0.1060 ho         1 7GP       0.418000
     23 H3          -2.8090    -1.2080    -1.4770 h1         1 7GP       0.059700
     24 HO3         -3.3910    -3.1680    -0.4890 ho         1 7GP       0.427000
     25 H4          -3.4630    -0.1550     1.3020 h1         1 7GP       0.052700
     26 HO4         -5.2620    -0.4840    -0.1150 ho         1 7GP       0.426000
     27 H5          -2.4550     1.2860    -1.1940 h1         1 7GP       0.067700
     28 H61         -3.9970     2.5960     0.2540 h1         1 7GP       0.035700
     29 H62         -2.9530     2.2850     1.6440 h1         1 7GP       0.035700
     30 HO6         -2.4300     4.2810     0.5670 ho         1 7GP       0.406000
     31 HN1          0.8770    -0.6760     1.2280 hn         1 7GP       0.339500
     32 H91          5.6360    -0.9250     0.6780 h1         1 7GP       0.050700
     33 H92          5.4850     0.7510     1.2220 h1         1 7GP       0.050700
     34 H101         6.3450     1.5440    -1.0060 hc         1 7GP       0.051700
     35 H102         7.4900     0.4760    -0.1990 hc         1 7GP       0.051700
     36 H103         6.5160    -0.1410    -1.5300 hc         1 7GP       0.051700
@<TRIPOS>BOND
     1     1     2 1   
     2     1     9 1   
     3     1    12 1   
     4     1    20 1   
     5     2     3 1   
     6     2     4 1   
     7     2    21 1   
     8     3    22 1   
     9     4     5 1   
    10     4     6 1   
    11     4    23 1   
    12     5    24 1   
    13     6     7 1   
    14     6     8 1   
    15     6    25 1   
    16     7    26 1   
    17     8     9 1   
    18     8    10 1   
    19     8    27 1   
    20    10    11 1   
    21    10    28 1   
    22    10    29 1   
    23    11    30 1   
    24    12    13 1   
    25    12    31 1   
    26    13    14 2   
    27    13    15 1   
    28    15    16 2   
    29    15    18 1   
    30    17    18 1   
    31    17    19 1   
    32    17    32 1   
    33    17    33 1   
    34    19    34 1   
    35    19    35 1   
    36    19    36 1   
@<TRIPOS>SUBSTRUCTURE
     1 7GP         1 TEMP              0 ****  ****    0 ROOT
