@<TRIPOS>MOLECULE
7GP
   36    36     1     0     0
SMALL
No Charge or Current Charge


@<TRIPOS>ATOM
      1 C1          -0.6610    -0.5180    -0.3990 c6         1 7GP       0.304700
      2 C2          -1.5980    -1.6740     0.0920 c6         1 7GP       0.098300
      3 O2          -1.2410    -2.9580    -0.4770 oh         1 7GP      -0.715000
      4 C3          -3.0660    -1.3280    -0.2890 c6         1 7GP       0.139300
      5 O3          -3.9540    -2.3550     0.1820 oh         1 7GP      -0.665000
      6 C4          -3.4670     0.0600     0.2890 c6         1 7GP       0.143300
      7 O4          -4.8150     0.3780    -0.1040 oh         1 7GP      -0.715000
      8 C5          -2.4390     1.1320    -0.1920 c6         1 7GP       0.178300
      9 O5          -1.0950     0.7250     0.1850 os         1 7GP      -0.458000
     10 C6          -2.7200     2.5440     0.4220 c3         1 7GP       0.172600
     11 O6          -1.7530     3.5420     0.0330 oh         1 7GP      -0.707000
     12 N1           0.7140    -0.7080     0.0460 ns         1 7GP      -0.489900
     13 C7           1.8160    -0.0800    -0.5070 c          1 7GP       0.557100
     14 O7           1.7380     0.5870    -1.5370 o          1 7GP      -0.530100
     15 C8           3.1880    -0.3110     0.2940 c          1 7GP       0.513100
     16 O8           3.2500    -0.9940     1.3160 o          1 7GP      -0.494000
     17 C9           5.5550     0.1710     0.3790 c3         1 7GP       0.163600
     18 O9           4.2790     0.3200    -0.2670 os         1 7GP      -0.401100
     19 C10          6.5830     0.9660    -0.4420 c3         1 7GP      -0.097100
     20 H1          -0.6880    -0.4510    -1.4990 h2         1 7GP       0.087700
     21 H2          -1.5300    -1.7210     1.1900 h1         1 7GP       0.054700
     22 HO2         -0.2940    -3.1310    -0.2600 ho         1 7GP       0.517000
     23 H3          -3.1210    -1.2690    -1.3870 h1         1 7GP       0.059700
     24 HO3         -3.4570    -3.1950     0.0380 ho         1 7GP       0.466000
     25 H4          -3.4070     0.0030     1.3870 h1         1 7GP       0.052700
     26 HO4         -5.3090    -0.4750    -0.0250 ho         1 7GP       0.525000
     27 H5          -2.4890     1.2200    -1.2880 h1         1 7GP       0.067700
     28 H61         -3.7250     2.8590     0.1110 h1         1 7GP       0.035700
     29 H62         -2.7350     2.4420     1.5160 h1         1 7GP       0.035700
     30 HO6         -1.9800     4.3680     0.5210 ho         1 7GP       0.505000
     31 HN1          0.8730    -1.1980     0.9190 hn         1 7GP       0.339500
     32 H91          5.8540    -0.8850     0.4180 h1         1 7GP       0.050700
     33 H92          5.5230     0.5630     1.4040 h1         1 7GP       0.050700
     34 H101         6.3090     2.0270    -0.4810 hc         1 7GP       0.051700
     35 H102         7.5770     0.8830     0.0120 hc         1 7GP       0.051700
     36 H103         6.6390     0.5800    -1.4670 hc         1 7GP       0.051700
@<TRIPOS>BOND
     1     1     2 1   
     2     1     9 1   
     3     1    12 1   
     4     1    20 1   
     5     2     3 1   
     6     2     4 1   
     7     2    21 1   
     8     3    22 1   
     9     4     5 1   
    10     4     6 1   
    11     4    23 1   
    12     5    24 1   
    13     6     7 1   
    14     6     8 1   
    15     6    25 1   
    16     7    26 1   
    17     8     9 1   
    18     8    10 1   
    19     8    27 1   
    20    10    11 1   
    21    10    28 1   
    22    10    29 1   
    23    11    30 1   
    24    12    13 1   
    25    12    31 1   
    26    13    14 2   
    27    13    15 1   
    28    15    16 2   
    29    15    18 1   
    30    17    18 1   
    31    17    19 1   
    32    17    32 1   
    33    17    33 1   
    34    19    34 1   
    35    19    35 1   
    36    19    36 1   
@<TRIPOS>SUBSTRUCTURE
     1 7GP         1 TEMP              0 ****  ****    0 ROOT
