@<TRIPOS>MOLECULE
7GQ
   54    59     1     0     0
SMALL
No Charge or Current Charge


@<TRIPOS>ATOM
      1 Cl1          5.3900     3.4870     2.1670 cl         1 7GQ      -0.181000
      2 C19          4.4920     2.1280     1.4910 ca         1 7GQ       0.060000
      3 C18          4.6040     1.7440     0.1470 ca         1 7GQ      -0.194900
      4 C21          5.3480     2.2090    -0.9700 cc         1 7GQ       0.592800
      5 N7           6.1960     3.2570    -0.9660 nv         1 7GQ      -0.990200
      6 N6           5.1320     1.4900    -2.0590 nd         1 7GQ      -0.373700
      7 O1           4.1680     0.4660    -1.6590 os         1 7GQ      -0.111100
      8 C17          3.8940     0.6790    -0.3250 ca         1 7GQ      -0.010900
      9 C20          3.6140     1.3580     2.2970 ca         1 7GQ       0.378900
     10 N5           2.8960     0.2910     1.8370 nb         1 7GQ      -0.740000
     11 C16          3.0300    -0.0530     0.5330 ca         1 7GQ       0.649900
     12 N4           2.2540    -1.1640     0.1440 nh         1 7GQ      -0.789300
     13 C15          1.6600    -2.1410     1.0960 c5         1 7GQ       0.223800
     14 C11          1.2390    -3.2830     0.1010 c5         1 7GQ      -0.108700
     15 C14          2.1170    -1.6780    -1.2500 c5         1 7GQ       0.214500
     16 C13          3.1790    -2.8210    -1.3370 c5         1 7GQ      -0.104400
     17 C12          2.5750    -3.9370    -0.4050 c5         1 7GQ      -0.081400
     18 C10          0.8150    -2.5260    -1.1840 c5         1 7GQ       0.100700
     19 N3          -0.3040    -1.6240    -0.8420 ns         1 7GQ      -0.491900
     20 C9          -1.5950    -2.1120    -0.8930 c          1 7GQ       0.618700
     21 O           -1.8390    -3.2340    -1.3160 o          1 7GQ      -0.576100
     22 C6          -2.6680    -1.1340    -0.4610 ca         1 7GQ      -0.152600
     23 C5          -2.4380     0.2600    -0.5730 ca         1 7GQ      -0.067000
     24 C4          -3.4210     1.1880    -0.1910 ca         1 7GQ      -0.107000
     25 C7          -3.9190    -1.5660     0.0510 ca         1 7GQ       0.178000
     26 Cl          -4.3200    -3.2670     0.3040 cl         1 7GQ      -0.163000
     27 C8          -4.8940    -0.6280     0.4350 ca         1 7GQ      -0.143000
     28 C3          -4.6570     0.7540     0.3180 ca         1 7GQ       0.053800
     29 N1          -5.6320     1.6820     0.7030 na         1 7GQ       0.026500
     30 C2          -6.4620     1.5470     1.7890 cc         1 7GQ       0.436400
     31 N           -7.2690     2.5980     1.7920 nd         1 7GQ      -0.694000
     32 N2          -5.8820     2.7950    -0.0290 nc         1 7GQ      -0.535800
     33 C1          -6.8750     3.3190     0.6750 cd         1 7GQ       0.548300
     34 C           -7.5280     4.6070     0.2720 c3         1 7GQ      -0.114400
     35 H18          6.5020     3.6000    -0.0610 hn         1 7GQ       0.479000
     36 H19          6.8570     3.3220    -1.7310 hn         1 7GQ       0.479000
     37 H17          3.4830     1.6050     3.3500 h4         1 7GQ       0.036100
     38 H16          2.3790    -2.4940     1.8480 h1         1 7GQ       0.064200
     39 H15          0.7920    -1.7180     1.6210 h1         1 7GQ       0.064200
     40 H9           0.5080    -3.9920     0.5040 hc         1 7GQ       0.097700
     41 H14          2.1390    -0.9280    -2.0540 h1         1 7GQ       0.103700
     42 H12          3.2840    -3.1820    -2.3660 hc         1 7GQ       0.062200
     43 H13          4.1740    -2.4930    -1.0120 hc         1 7GQ       0.062200
     44 H10          3.2500    -4.2050     0.4170 hc         1 7GQ       0.055200
     45 H11          2.3790    -4.8570    -0.9680 hc         1 7GQ       0.055200
     46 H8           0.6470    -3.1610    -2.0660 h1         1 7GQ       0.092700
     47 H7          -0.1610    -0.7060    -0.4410 hn         1 7GQ       0.330500
     48 H5          -1.5060     0.6440    -0.9820 ha         1 7GQ       0.129000
     49 H4          -3.2170     2.2520    -0.2920 ha         1 7GQ       0.155000
     50 H6          -5.8420    -0.9910     0.8220 ha         1 7GQ       0.137000
     51 H3          -6.4250     0.7230     2.4920 h5         1 7GQ       0.069100
     52 H1          -8.2970     4.9050     0.9920 hc         1 7GQ       0.058033
     53 H           -6.7900     5.4150     0.2130 hc         1 7GQ       0.058033
     54 H2          -8.0040     4.5100    -0.7100 hc         1 7GQ       0.058033
@<TRIPOS>BOND
     1     1     2 1   
     2     2     3 ar  
     3     2     9 ar  
     4     3     4 1   
     5     3     8 ar  
     6     4     5 1   
     7     4     6 2   
     8     5    35 1   
     9     5    36 1   
    10     6     7 1   
    11     7     8 1   
    12     8    11 ar  
    13     9    10 ar  
    14     9    37 1   
    15    10    11 ar  
    16    11    12 1   
    17    12    13 1   
    18    12    15 1   
    19    13    14 1   
    20    13    38 1   
    21    13    39 1   
    22    14    17 1   
    23    14    18 1   
    24    14    40 1   
    25    15    16 1   
    26    15    18 1   
    27    15    41 1   
    28    16    17 1   
    29    16    42 1   
    30    16    43 1   
    31    17    44 1   
    32    17    45 1   
    33    18    19 1   
    34    18    46 1   
    35    19    20 1   
    36    19    47 1   
    37    20    21 2   
    38    20    22 1   
    39    22    23 ar  
    40    22    25 ar  
    41    23    24 ar  
    42    23    48 1   
    43    24    28 ar  
    44    24    49 1   
    45    25    26 1   
    46    25    27 ar  
    47    27    28 ar  
    48    27    50 1   
    49    28    29 1   
    50    29    30 1   
    51    29    32 1   
    52    30    31 2   
    53    30    51 1   
    54    31    33 1   
    55    32    33 2   
    56    33    34 1   
    57    34    52 1   
    58    34    53 1   
    59    34    54 1   
@<TRIPOS>SUBSTRUCTURE
     1 7GQ         1 TEMP              0 ****  ****    0 ROOT
