@<TRIPOS>MOLECULE
7GQ
   54    59     1     0     0
SMALL
abcg2


@<TRIPOS>ATOM
      1 CL1          5.6190     3.0180     2.4830 cl         1 7GQ      -0.181000
      2 C19          4.6570     1.7920     1.7430 ca         1 7GQ       0.060000
      3 C18          4.4490     1.7460     0.3610 ca         1 7GQ      -0.194900
      4 C21          4.8400     2.5080    -0.7970 cc         1 7GQ       0.592800
      5 N7           5.5620     3.6540    -0.8100 nv         1 7GQ      -0.990200
      6 N6           4.3370     1.9800    -1.8770 nd         1 7GQ      -0.373700
      7 O1           3.5940     0.8810    -1.5000 os         1 7GQ      -0.111100
      8 C17          3.6700     0.7470    -0.1710 ca         1 7GQ      -0.010900
      9 C20          4.0570     0.8060     2.4840 ca         1 7GQ       0.378900
     10 N5           3.3040    -0.1640     1.9540 nb         1 7GQ      -0.740000
     11 C16          3.0750    -0.2430     0.6520 ca         1 7GQ       0.649900
     12 N4           2.2800    -1.2360     0.2050 nh         1 7GQ      -0.789300
     13 C15          1.8790    -2.3420     1.0810 c5         1 7GQ       0.223800
     14 C11          1.4110    -3.3780     0.0590 c5         1 7GQ      -0.108700
     15 C14          2.0610    -1.6410    -1.1850 c5         1 7GQ       0.214500
     16 C13          3.0910    -2.7100    -1.5560 c5         1 7GQ      -0.104400
     17 C12          2.6400    -3.9180    -0.6880 c5         1 7GQ      -0.081400
     18 C10          0.7920    -2.4780    -1.0220 c5         1 7GQ       0.100700
     19 N3          -0.3410    -1.6850    -0.6240 ns         1 7GQ      -0.491900
     20 C9          -1.5890    -2.1750    -0.5950 c          1 7GQ       0.618700
     21 O           -1.8690    -3.3310    -0.8650 o          1 7GQ      -0.576100
     22 C6          -2.6390    -1.1670    -0.2440 ca         1 7GQ      -0.152600
     23 C5          -2.6810     0.0510    -0.9150 ca         1 7GQ      -0.067000
     24 C4          -3.6700     0.9870    -0.6740 ca         1 7GQ      -0.107000
     25 C7          -3.6320    -1.4170     0.7000 ca         1 7GQ       0.178000
     26 CL          -3.6320    -2.8790     1.6200 cl         1 7GQ      -0.163000
     27 C8          -4.6240    -0.4910     0.9720 ca         1 7GQ      -0.143000
     28 C3          -4.6460     0.7120     0.2750 ca         1 7GQ       0.053800
     29 N1          -5.6520     1.6550     0.5340 na         1 7GQ       0.026500
     30 C2          -6.6810     1.6020     1.4010 cc         1 7GQ       0.436400
     31 N           -7.3840     2.6990     1.3260 nd         1 7GQ      -0.694000
     32 N2          -5.6910     2.8250    -0.1240 nc         1 7GQ      -0.535800
     33 C1          -6.7410     3.4260     0.3740 cd         1 7GQ       0.548300
     34 C           -7.1860     4.7750    -0.0560 c3         1 7GQ      -0.114400
     35 H18          6.2290     3.7820    -0.0670 hn         1 7GQ       0.479000
     36 H19          5.9010     3.9580    -1.7090 hn         1 7GQ       0.479000
     37 H17          4.1800     0.7810     3.5610 h4         1 7GQ       0.036100
     38 H16          2.7160    -2.7050     1.6800 h1         1 7GQ       0.064200
     39 H15          1.0860    -2.0360     1.7680 h1         1 7GQ       0.064200
     40 H9           0.7610    -4.1410     0.4820 hc         1 7GQ       0.097700
     41 H14          1.9800    -0.8010    -1.8680 h1         1 7GQ       0.103700
     42 H12          3.0440    -2.9350    -2.6220 hc         1 7GQ       0.062200
     43 H13          4.1060    -2.3800    -1.3340 hc         1 7GQ       0.062200
     44 H10          3.4150    -4.2550    -0.0000 hc         1 7GQ       0.055200
     45 H11          2.3680    -4.7710    -1.3110 hc         1 7GQ       0.055200
     46 H8           0.5540    -3.0300    -1.9330 h1         1 7GQ       0.092700
     47 H7          -0.1770    -0.7420    -0.3050 hn         1 7GQ       0.330500
     48 H5          -1.9300     0.2710    -1.6630 ha         1 7GQ       0.129000
     49 H4          -3.6800     1.9170    -1.2210 ha         1 7GQ       0.155000
     50 H6          -5.3650    -0.7220     1.7240 ha         1 7GQ       0.137000
     51 H3          -6.8790     0.7670     2.0520 h5         1 7GQ       0.069100
     52 H1          -7.1630     5.4720     0.7820 hc         1 7GQ       0.058033
     53 H           -6.5450     5.1620    -0.8440 hc         1 7GQ       0.058033
     54 H2          -8.2100     4.7430    -0.4260 hc         1 7GQ       0.058033
@<TRIPOS>BOND
     1     1     2 1   
     2     2     3 ar  
     3     2     9 ar  
     4     3     4 1   
     5     3     8 ar  
     6     4     5 1   
     7     4     6 2   
     8     5    35 1   
     9     5    36 1   
    10     6     7 1   
    11     7     8 1   
    12     8    11 ar  
    13     9    10 ar  
    14     9    37 1   
    15    10    11 ar  
    16    11    12 1   
    17    12    13 1   
    18    12    15 1   
    19    13    14 1   
    20    13    38 1   
    21    13    39 1   
    22    14    17 1   
    23    14    18 1   
    24    14    40 1   
    25    15    16 1   
    26    15    18 1   
    27    15    41 1   
    28    16    17 1   
    29    16    42 1   
    30    16    43 1   
    31    17    44 1   
    32    17    45 1   
    33    18    19 1   
    34    18    46 1   
    35    19    20 1   
    36    19    47 1   
    37    20    21 2   
    38    20    22 1   
    39    22    23 ar  
    40    22    25 ar  
    41    23    24 ar  
    42    23    48 1   
    43    24    28 ar  
    44    24    49 1   
    45    25    26 1   
    46    25    27 ar  
    47    27    28 ar  
    48    27    50 1   
    49    28    29 1   
    50    29    30 1   
    51    29    32 1   
    52    30    31 2   
    53    30    51 1   
    54    31    33 1   
    55    32    33 2   
    56    33    34 1   
    57    34    52 1   
    58    34    53 1   
    59    34    54 1   
@<TRIPOS>SUBSTRUCTURE
     1 7GQ         1 TEMP              0 ****  ****    0 ROOT
