@<TRIPOS>MOLECULE
7GR
   52    52     1     0     0
SMALL
bcc


@<TRIPOS>ATOM
      1 C2           2.1770     1.3100    -0.1430 c3         1 7GR       0.145800
      2 C9           5.8320     0.4060    -0.3130 c3         1 7GR      -0.038300
      3 C10          6.4470     1.6830    -0.9430 c          1 7GR       0.923600
      4 C14          6.4140    -0.8460    -0.9680 c3         1 7GR      -0.066400
      5 C19          6.5650    -3.3320    -1.1630 c3         1 7GR      -0.080600
      6 C31         -0.8620     0.1370     1.2200 c3         1 7GR      -0.087200
      7 N1           1.3240     1.7540     0.9280 n7         1 7GR      -0.915300
      8 C5           3.6220     1.2140     0.3160 c          1 7GR       0.661100
      9 O6           4.0400     1.8640     1.2650 o          1 7GR      -0.632100
     10 N7           4.3900     0.3820    -0.4010 ns         1 7GR      -0.540900
     11 O11          5.6990     2.4200    -1.6060 o          1 7GR      -0.838300
     12 O12          7.6670     1.8370    -0.7300 o          1 7GR      -0.838300
     13 C17          5.9220    -2.1790    -0.4000 c3         1 7GR      -0.063700
     14 C23          6.2010    -2.3040     1.0940 c3         1 7GR      -0.080600
     15 P28         -0.3660     1.8390     0.7060 p5         1 7GR       1.196500
     16 O29         -0.9020     2.8130     1.7280 o          1 7GR      -0.831500
     17 O30         -0.7250     1.9960    -0.7520 o          1 7GR      -0.831500
     18 C39         -4.9440    -1.0090    -1.0320 c3         1 7GR       0.207700
     19 C42         -6.3890    -0.7190    -0.7540 ca         1 7GR      -0.074300
     20 C43         -7.0620     0.2760    -1.4560 ca         1 7GR      -0.104000
     21 C45         -8.3950     0.5560    -1.1810 ca         1 7GR      -0.141500
     22 C47         -9.0650    -0.1560    -0.1960 ca         1 7GR      -0.136000
     23 C49         -8.3990    -1.1510     0.5110 ca         1 7GR      -0.141500
     24 C51         -7.0700    -1.4300     0.2320 ca         1 7GR      -0.104000
     25 N34         -2.2920    -0.0400     1.0870 ns         1 7GR      -0.512900
     26 C36         -2.8600    -0.5840    -0.0010 c          1 7GR       0.747100
     27 O37         -2.2810    -1.1980    -0.8750 o          1 7GR      -0.605000
     28 O38         -4.1900    -0.3970     0.0170 os         1 7GR      -0.450900
     29 H1           1.8450     0.3340    -0.5070 h1         1 7GR       0.037700
     30 H2           2.1710     1.9750    -1.0200 h1         1 7GR       0.037700
     31 H3           6.1020     0.3990     0.7460 h1         1 7GR       0.058700
     32 H4           6.2050    -0.8190    -2.0440 hc         1 7GR       0.039200
     33 H5           7.5020    -0.7960    -0.8690 hc         1 7GR       0.039200
     34 H6           6.1910    -4.2960    -0.8160 hc         1 7GR       0.020033
     35 H7           6.3640    -3.2630    -2.2340 hc         1 7GR       0.020033
     36 H8           7.6500    -3.3310    -1.0310 hc         1 7GR       0.020033
     37 H9          -0.3550    -0.6180     0.6210 h1         1 7GR       0.059200
     38 H10         -0.5800    -0.0400     2.2600 h1         1 7GR       0.059200
     39 H11          1.7080     2.5490     1.4200 hn         1 7GR       0.404800
     40 H12          3.9880    -0.0070    -1.2410 hn         1 7GR       0.286500
     41 H14          4.8380    -2.2420    -0.5470 hc         1 7GR       0.046700
     42 H15          5.6650    -1.5540     1.6780 hc         1 7GR       0.020033
     43 H16          5.8960    -3.2830     1.4680 hc         1 7GR       0.020033
     44 H17          7.2680    -2.1880     1.3020 hc         1 7GR       0.020033
     45 H19         -4.7640    -2.0860    -1.0480 h1         1 7GR       0.049700
     46 H20         -4.6490    -0.6020    -2.0020 h1         1 7GR       0.049700
     47 H21         -6.5430     0.8350    -2.2250 ha         1 7GR       0.137000
     48 H22         -8.9090     1.3300    -1.7360 ha         1 7GR       0.119500
     49 H23        -10.1030     0.0600     0.0190 ha         1 7GR       0.115000
     50 H24         -8.9200    -1.7100     1.2780 ha         1 7GR       0.119500
     51 H25         -6.5580    -2.2120     0.7810 ha         1 7GR       0.137000
     52 H26         -2.8760     0.5220     1.6860 hn         1 7GR       0.315500
@<TRIPOS>BOND
     1     1     7 1   
     2     1     8 1   
     3     1    29 1   
     4     1    30 1   
     5     2     3 1   
     6     2     4 1   
     7     2    10 1   
     8     2    31 1   
     9     3    11 1   
    10     3    12 1   
    11     4    13 1   
    12     4    32 1   
    13     4    33 1   
    14     5    13 1   
    15     5    34 1   
    16     5    35 1   
    17     5    36 1   
    18     6    15 1   
    19     6    25 1   
    20     6    37 1   
    21     6    38 1   
    22     7    15 1   
    23     7    39 1   
    24     8     9 2   
    25     8    10 1   
    26    10    40 1   
    27    13    14 1   
    28    13    41 1   
    29    14    42 1   
    30    14    43 1   
    31    14    44 1   
    32    15    16 1   
    33    15    17 1   
    34    18    19 1   
    35    18    28 1   
    36    18    45 1   
    37    18    46 1   
    38    19    20 ar  
    39    19    24 ar  
    40    20    21 ar  
    41    20    47 1   
    42    21    22 ar  
    43    21    48 1   
    44    22    23 ar  
    45    22    49 1   
    46    23    24 ar  
    47    23    50 1   
    48    24    51 1   
    49    25    26 1   
    50    25    52 1   
    51    26    27 2   
    52    26    28 1   
@<TRIPOS>SUBSTRUCTURE
     1 7GR         1 TEMP              0 ****  ****    0 ROOT
