@<TRIPOS>MOLECULE
7GR
   52    52     1     0     0
SMALL
No Charge or Current Charge


@<TRIPOS>ATOM
      1 C2           2.4110     1.1550    -0.5920 c3         1 7GR       0.145800
      2 C9           6.1060    -0.0940    -0.9890 c3         1 7GR      -0.038300
      3 C10          6.8390     0.1450    -2.3480 c          1 7GR       0.713000
      4 C14          6.3150    -1.5520    -0.4920 c3         1 7GR      -0.066400
      5 C19          5.8680    -3.3750     1.2410 c3         1 7GR      -0.080600
      6 C31         -0.7160     0.4190    -0.7460 c3         1 7GR      -0.245000
      7 N1           1.4770     1.2660     0.5710 n7         1 7GR      -0.970500
      8 C5           3.9220     0.9850    -0.2170 c          1 7GR       0.594100
      9 O6           4.4190     1.4820     0.7900 o          1 7GR      -0.632100
     10 N7           4.6650     0.2420    -1.1170 ns         1 7GR      -0.473900
     11 O11          6.3840    -0.3750    -3.3590 o          1 7GR      -0.733000
     12 O12          7.7940     0.9090    -2.3620 o          1 7GR      -0.733000
     13 C17          5.8330    -1.8560     0.9550 c3         1 7GR      -0.063700
     14 C23          6.6400    -1.0850     2.0280 c3         1 7GR      -0.080600
     15 P28         -0.0760     1.7470     0.3930 p5         1 7GR       1.354300
     16 O29         -0.6810     1.7410     1.7530 o          1 7GR      -0.831500
     17 O30         -0.0180     3.0940    -0.2350 o          1 7GR      -0.831500
     18 C39         -5.6110     0.8300    -0.8630 c3         1 7GR       0.230900
     19 C42         -6.7510    -0.1030    -0.4760 ca         1 7GR      -0.074300
     20 C43         -7.3530    -0.0060     0.7950 ca         1 7GR      -0.086000
     21 C45         -8.4060    -0.8680     1.1480 ca         1 7GR      -0.123500
     22 C47         -8.8630    -1.8320     0.2340 ca         1 7GR      -0.118000
     23 C49         -8.2660    -1.9350    -1.0330 ca         1 7GR      -0.123500
     24 C51         -7.2130    -1.0740    -1.3880 ca         1 7GR      -0.086000
     25 N34         -2.1470     0.0290    -0.6030 ns         1 7GR      -0.445900
     26 C36         -3.2190     0.8340    -0.8950 c          1 7GR       0.631100
     27 O37         -3.1500     1.9610    -1.3600 o          1 7GR      -0.556000
     28 O38         -4.3650     0.1600    -0.6080 os         1 7GR      -0.474100
     29 H1           2.1260     0.2990    -1.2190 h1         1 7GR       0.037700
     30 H2           2.3480     2.0490    -1.2260 h1         1 7GR       0.037700
     31 H3           6.5660     0.5940    -0.2700 h1         1 7GR       0.058700
     32 H4           5.8050    -2.2280    -1.1890 hc         1 7GR       0.039200
     33 H5           7.3840    -1.7940    -0.5600 hc         1 7GR       0.039200
     34 H6           5.4820    -3.5900     2.2450 hc         1 7GR       0.020033
     35 H7           5.2490    -3.9210     0.5190 hc         1 7GR       0.020033
     36 H8           6.8920    -3.7620     1.1770 hc         1 7GR       0.020033
     37 H9          -0.5390     0.7720    -1.7690 h1         1 7GR       0.059200
     38 H10         -0.0970    -0.4700    -0.5750 h1         1 7GR       0.059200
     39 H11          1.7770     2.0540     1.1410 hn         1 7GR       0.460000
     40 H12          4.1740    -0.1040    -1.9340 hn         1 7GR       0.286500
     41 H14          4.7860    -1.5420     1.0390 hc         1 7GR       0.046700
     42 H15          6.5450    -0.0020     1.8990 hc         1 7GR       0.020033
     43 H16          6.2770    -1.3310     3.0330 hc         1 7GR       0.020033
     44 H17          7.7050    -1.3450     1.9760 hc         1 7GR       0.020033
     45 H19         -5.7010     1.0940    -1.9250 h1         1 7GR       0.049700
     46 H20         -5.6800     1.7580    -0.2780 h1         1 7GR       0.049700
     47 H21         -7.0030     0.7360     1.5090 ha         1 7GR       0.119000
     48 H22         -8.8670    -0.7890     2.1300 ha         1 7GR       0.101500
     49 H23         -9.6780    -2.4990     0.5080 ha         1 7GR       0.097000
     50 H24         -8.6190    -2.6830    -1.7410 ha         1 7GR       0.101500
     51 H25         -6.7540    -1.1610    -2.3700 ha         1 7GR       0.119000
     52 H26         -2.3810    -0.8790    -0.2170 hn         1 7GR       0.315500
@<TRIPOS>BOND
     1     1     7 1   
     2     1     8 1   
     3     1    29 1   
     4     1    30 1   
     5     2     3 1   
     6     2     4 1   
     7     2    10 1   
     8     2    31 1   
     9     3    11 1   
    10     3    12 1   
    11     4    13 1   
    12     4    32 1   
    13     4    33 1   
    14     5    13 1   
    15     5    34 1   
    16     5    35 1   
    17     5    36 1   
    18     6    15 1   
    19     6    25 1   
    20     6    37 1   
    21     6    38 1   
    22     7    15 1   
    23     7    39 1   
    24     8     9 2   
    25     8    10 1   
    26    10    40 1   
    27    13    14 1   
    28    13    41 1   
    29    14    42 1   
    30    14    43 1   
    31    14    44 1   
    32    15    16 1   
    33    15    17 1   
    34    18    19 1   
    35    18    28 1   
    36    18    45 1   
    37    18    46 1   
    38    19    20 ar  
    39    19    24 ar  
    40    20    21 ar  
    41    20    47 1   
    42    21    22 ar  
    43    21    48 1   
    44    22    23 ar  
    45    22    49 1   
    46    23    24 ar  
    47    23    50 1   
    48    24    51 1   
    49    25    26 1   
    50    25    52 1   
    51    26    27 2   
    52    26    28 1   
@<TRIPOS>SUBSTRUCTURE
     1 7GR         1 TEMP              0 ****  ****    0 ROOT
