@<TRIPOS>MOLECULE
7GS
   73    79     1     0     0
SMALL
bcc


@<TRIPOS>ATOM
      1 C4           8.7890    -0.3380     1.8570 ca         1 7GS      -0.151000
      2 C5           9.6720    -0.6540     0.8330 ca         1 7GS       0.116100
      3 C7           9.1340    -0.8990    -0.4230 ca         1 7GS       0.027900
      4 C10          6.9030    -0.4950     0.3680 cp         1 7GS      -0.051000
      5 C13          3.4580     0.9970    -0.1030 ca         1 7GS      -0.060000
      6 C15          1.4150    -0.4060    -0.8880 cc         1 7GS      -0.145900
      7 C20          4.7700    -1.5230    -0.3530 ca         1 7GS      -0.097000
      8 C21          0.2840     0.4840    -0.9410 cc         1 7GS       0.478300
      9 C24         -3.1740     1.4050    -1.6390 c6         1 7GS       0.195300
     10 C26         -2.7170     3.7860    -1.2750 c6         1 7GS       0.090000
     11 C28         -0.9280     2.2280    -0.7510 cd         1 7GS       0.328600
     12 C1           6.0070    -1.3310     3.4250 c3         1 7GS      -0.087100
     13 C3           7.4150    -0.2560     1.6500 ca         1 7GS      -0.032300
     14 O6          10.9910    -0.7100     1.0950 oh         1 7GS      -0.488100
     15 F8           9.9770    -1.2110    -1.4300 f          1 7GS      -0.153900
     16 C9           7.7810    -0.8230    -0.6630 ca         1 7GS      -0.111000
     17 C11          5.4530    -0.4110     0.0660 cp         1 7GS      -0.018000
     18 C12          4.7860     0.8480     0.1780 ca         1 7GS      -0.143000
     19 C14          2.7390    -0.1410    -0.5200 ca         1 7GS      -0.098000
     20 N16          1.3930    -1.7140    -1.1910 na         1 7GS       0.058800
     21 N17          2.5510    -2.3440    -1.0650 nc         1 7GS      -0.270400
     22 C19          3.3950    -1.3940    -0.6520 ca         1 7GS      -0.071000
     23 N22         -0.9500     0.1550    -1.4050 na         1 7GS      -0.289900
     24 C23         -1.7330     1.2630    -1.2850 cc         1 7GS      -0.247900
     25 N25         -3.6300     2.6670    -1.0730 n          1 7GS      -0.455800
     26 C27         -1.4150     3.6110    -0.4930 c6         1 7GS      -0.121700
     27 N29          0.3210     1.7350    -0.5380 nd         1 7GS      -0.639000
     28 C31         -4.6090     2.7800    -0.1430 c          1 7GS       0.600600
     29 O32         -4.6870     3.7460     0.6080 o          1 7GS      -0.596100
     30 C33         -5.6620     1.7320    -0.0760 ca         1 7GS       0.154500
     31 C34         -6.3300     1.4980     1.1160 ca         1 7GS       0.408900
     32 N35         -7.3260     0.6380     1.2140 nb         1 7GS      -0.743000
     33 C36         -7.7280    -0.0060     0.1140 ca         1 7GS       0.599900
     34 C37         -7.0390     0.2380    -1.1100 ca         1 7GS       0.216900
     35 N38         -6.0430     1.0800    -1.1790 nb         1 7GS      -0.598000
     36 N39         -8.7870    -0.8350     0.2110 nh         1 7GS      -0.759300
     37 C40         -9.1650    -1.7760    -0.8320 c6         1 7GS       0.213800
     38 C41         -8.6750    -3.1790    -0.4900 c6         1 7GS      -0.104400
     39 C42         -9.1850    -3.6090     0.8830 c6         1 7GS      -0.076400
     40 C43         -8.8650    -2.5610     1.9440 c6         1 7GS      -0.104400
     41 C44         -9.3560    -1.1860     1.5060 c6         1 7GS       0.213800
     42 H1           9.1930    -0.1570     2.8470 ha         1 7GS       0.149000
     43 H2           2.9730     1.9590    -0.0140 ha         1 7GS       0.159000
     44 H3           5.2640    -2.4830    -0.4420 ha         1 7GS       0.148000
     45 H4          -3.3200     1.3960    -2.7240 h1         1 7GS       0.066700
     46 H5          -3.7450     0.5730    -1.2350 h1         1 7GS       0.066700
     47 H6          -2.4940     3.8350    -2.3440 h1         1 7GS       0.065200
     48 H7          -3.2160     4.7120    -1.0040 h1         1 7GS       0.065200
     49 H8           5.4370    -1.8970     2.6880 hc         1 7GS       0.037367
     50 H9           6.8330    -1.9580     3.7620 hc         1 7GS       0.037367
     51 H10          5.3560    -1.1450     4.2810 hc         1 7GS       0.037367
     52 H11          5.6730     0.6120     2.5680 hc         1 7GS       0.051700
     53 H12          7.0770     0.5290     3.6030 hc         1 7GS       0.051700
     54 H13         11.4910    -0.9610     0.3110 ho         1 7GS       0.438000
     55 H14          7.4090    -1.0100    -1.6630 ha         1 7GS       0.154000
     56 H15          5.3630     1.7120     0.4840 ha         1 7GS       0.136000
     57 H16          0.5920    -2.2540    -1.4840 hn         1 7GS       0.312700
     58 H17         -1.2470    -0.7310    -1.7830 hn         1 7GS       0.297700
     59 H18         -0.6870     4.3550    -0.8250 hc         1 7GS       0.071700
     60 H19         -1.5840     3.7840     0.5740 hc         1 7GS       0.071700
     61 H21         -6.0420     2.0110     2.0260 h4         1 7GS       0.046100
     62 H22         -7.3140    -0.2570    -2.0310 h4         1 7GS       0.028100
     63 H23        -10.2570    -1.7710    -0.9050 h1         1 7GS       0.063200
     64 H24         -8.7960    -1.4580    -1.8030 h1         1 7GS       0.063200
     65 H25         -9.0130    -3.8750    -1.2610 hc         1 7GS       0.051950
     66 H26         -7.5800    -3.1920    -0.5060 hc         1 7GS       0.051950
     67 H27        -10.2700    -3.7490     0.8350 hc         1 7GS       0.044700
     68 H28         -8.7580    -4.5750     1.1600 hc         1 7GS       0.044700
     69 H29         -9.3320    -2.8250     2.8960 hc         1 7GS       0.051950
     70 H30         -7.7860    -2.5170     2.1200 hc         1 7GS       0.051950
     71 H31         -9.1090    -0.4200     2.2350 h1         1 7GS       0.063200
     72 H32        -10.4440    -1.1980     1.3950 h1         1 7GS       0.063200
     73 C2           6.5210    -0.0170     2.8380 c3         1 7GS      -0.034100
@<TRIPOS>BOND
     1     1     2 ar  
     2     1    13 ar  
     3     1    42 1   
     4     2     3 ar  
     5     2    14 1   
     6     3    15 1   
     7     3    16 ar  
     8     4    13 ar  
     9     4    16 ar  
    10     4    17 1   
    11     5    18 ar  
    12     5    19 ar  
    13     5    43 1   
    14     6     8 1   
    15     6    19 2   
    16     6    20 1   
    17     7    17 ar  
    18     7    22 ar  
    19     7    44 1   
    20     8    23 1   
    21     8    27 2   
    22     9    24 1   
    23     9    25 1   
    24     9    45 1   
    25     9    46 1   
    26    10    25 1   
    27    10    26 1   
    28    10    47 1   
    29    10    48 1   
    30    11    24 2   
    31    11    26 1   
    32    11    27 1   
    33    12    49 1   
    34    12    50 1   
    35    12    51 1   
    36    12    73 1   
    37    13    73 1   
    38    14    54 1   
    39    16    55 1   
    40    17    18 ar  
    41    18    56 1   
    42    19    22 ar  
    43    20    21 1   
    44    20    57 1   
    45    21    22 2   
    46    23    24 1   
    47    23    58 1   
    48    25    28 1   
    49    26    59 1   
    50    26    60 1   
    51    28    29 2   
    52    28    30 1   
    53    30    31 ar  
    54    30    35 ar  
    55    31    32 ar  
    56    31    61 1   
    57    32    33 ar  
    58    33    34 ar  
    59    33    36 1   
    60    34    35 ar  
    61    34    62 1   
    62    36    37 1   
    63    36    41 1   
    64    37    38 1   
    65    37    63 1   
    66    37    64 1   
    67    38    39 1   
    68    38    65 1   
    69    38    66 1   
    70    39    40 1   
    71    39    67 1   
    72    39    68 1   
    73    40    41 1   
    74    40    69 1   
    75    40    70 1   
    76    41    71 1   
    77    41    72 1   
    78    52    73 1   
    79    53    73 1   
@<TRIPOS>SUBSTRUCTURE
     1 7GS         1 TEMP              0 ****  ****    0 ROOT
