@<TRIPOS>MOLECULE
7GS
   73    79     1     0     0
SMALL
No Charge or Current Charge


@<TRIPOS>ATOM
      1 C4           9.3660    -0.0970     1.7610 ca         1 7GS      -0.133000
      2 C5          10.2060    -0.3700     0.6710 ca         1 7GS       0.116100
      3 C7           9.6480    -0.5970    -0.5990 ca         1 7GS       0.063000
      4 C10          7.3950    -0.2590     0.3090 cp         1 7GS      -0.051000
      5 C13          3.8050     1.0330    -0.0480 ca         1 7GS      -0.042000
      6 C15          1.8150    -0.4630    -0.7330 cc         1 7GS      -0.145900
      7 C20          5.2340    -1.3960    -0.3300 ca         1 7GS      -0.079000
      8 C21          0.6600     0.4020    -0.7480 cc         1 7GS       0.478300
      9 C24         -2.9550     1.0520    -1.2430 c6         1 7GS       0.195300
     10 C26         -2.5960     3.5410    -1.2250 c6         1 7GS       0.090000
     11 C28         -0.6980     2.0660    -0.6200 cd         1 7GS       0.263300
     12 C1           6.4590    -1.0650     3.3860 c3         1 7GS      -0.087100
     13 C3           7.9650    -0.0390     1.5980 ca         1 7GS      -0.032300
     14 O6          11.5600    -0.4200     0.8580 oh         1 7GS      -0.527100
     15 F8          10.4460    -0.8670    -1.6580 f          1 7GS      -0.189000
     16 C9           8.2580    -0.5450    -0.7760 ca         1 7GS      -0.093000
     17 C11          5.9240    -0.2200     0.0660 cp         1 7GS      -0.018000
     18 C12          5.1920     0.9940     0.1910 ca         1 7GS      -0.125000
     19 C14          3.1740    -0.1610    -0.4230 ca         1 7GS      -0.098000
     20 N16          1.7730    -1.8220    -1.0440 na         1 7GS       0.008500
     21 N17          3.0380    -2.4180    -0.9510 nc         1 7GS      -0.270400
     22 C19          3.8520    -1.3480    -0.5660 ca         1 7GS      -0.071000
     23 N22         -0.5970    -0.0650    -1.0780 na         1 7GS      -0.289500
     24 C23         -1.4650     1.0040    -0.9970 cc         1 7GS      -0.233300
     25 N25         -3.5200     2.4020    -0.9350 n          1 7GS      -0.388800
     26 C27         -1.2760     3.4370    -0.4260 c6         1 7GS      -0.121700
     27 N29          0.6170     1.6970    -0.4670 nd         1 7GS      -0.639000
     28 C31         -4.6960     2.5830    -0.1570 c          1 7GS       0.533600
     29 O32         -4.8750     3.6440     0.4340 o          1 7GS      -0.596100
     30 C33         -5.7630     1.4910    -0.1140 ca         1 7GS       0.154500
     31 C34         -6.6690     1.5060     0.9840 ca         1 7GS       0.408900
     32 N35         -7.6930     0.6160     1.1210 nb         1 7GS      -0.743000
     33 C36         -7.8220    -0.2950     0.1280 ca         1 7GS       0.599900
     34 C37         -6.9260    -0.3110    -0.9900 ca         1 7GS       0.216900
     35 N38         -5.9010     0.5760    -1.1300 nb         1 7GS      -0.598000
     36 N39         -8.8910    -1.2150     0.2840 nh         1 7GS      -0.759300
     37 C40         -9.7380    -1.5740    -0.8910 c6         1 7GS       0.213800
     38 C41        -10.2750    -3.0210    -0.7700 c6         1 7GS      -0.104400
     39 C42        -11.0350    -3.2260     0.5600 c6         1 7GS      -0.076400
     40 C43        -10.1270    -2.8390     1.7480 c6         1 7GS      -0.104400
     41 C44         -9.5770    -1.3980     1.6010 c6         1 7GS       0.213800
     42 H1           9.8080     0.0640     2.7410 ha         1 7GS       0.131000
     43 H2           3.2490     1.9630     0.0520 ha         1 7GS       0.141000
     44 H3           5.7740    -2.3330    -0.4420 ha         1 7GS       0.130000
     45 H4          -3.1820     0.7990    -2.2880 h1         1 7GS       0.066700
     46 H5          -3.4300     0.2910    -0.6080 h1         1 7GS       0.066700
     47 H6          -2.3630     3.5310    -2.3000 h1         1 7GS       0.065200
     48 H7          -3.0800     4.5050    -1.0180 h1         1 7GS       0.065200
     49 H8           5.7870    -1.5120     2.6440 hc         1 7GS       0.037367
     50 H9           7.2270    -1.8020     3.6460 hc         1 7GS       0.037367
     51 H10          5.8750    -0.8440     4.2870 hc         1 7GS       0.037367
     52 H11          6.3230     0.9560     2.6250 hc         1 7GS       0.051700
     53 H12          7.7150     0.6690     3.6340 hc         1 7GS       0.051700
     54 H13         11.9770    -0.6240    -0.0070 ho         1 7GS       0.477000
     55 H14          7.8400    -0.7220    -1.7640 ha         1 7GS       0.136000
     56 H15          5.7100     1.9070     0.4720 ha         1 7GS       0.118000
     57 H16          0.9640    -2.3740    -1.3120 hn         1 7GS       0.363000
     58 H17         -0.8310    -1.0160    -1.3300 hn         1 7GS       0.348000
     59 H18         -0.5730     4.2120    -0.7580 hc         1 7GS       0.071700
     60 H19         -1.4730     3.6140     0.6390 hc         1 7GS       0.071700
     61 H21         -6.5700     2.2420     1.7800 h4         1 7GS       0.046100
     62 H22         -7.0260    -1.0520    -1.7810 h4         1 7GS       0.028100
     63 H23        -10.5890    -0.8800    -0.9630 h1         1 7GS       0.063200
     64 H24         -9.1790    -1.4910    -1.8340 h1         1 7GS       0.063200
     65 H25        -10.9360    -3.2430    -1.6180 hc         1 7GS       0.051950
     66 H26         -9.4370    -3.7280    -0.8320 hc         1 7GS       0.051950
     67 H27        -11.9460    -2.6110     0.5690 hc         1 7GS       0.044700
     68 H28        -11.3570    -4.2720     0.6540 hc         1 7GS       0.044700
     69 H29        -10.6830    -2.9280     2.6910 hc         1 7GS       0.051950
     70 H30         -9.2860    -3.5430     1.8150 hc         1 7GS       0.051950
     71 H31         -8.8860    -1.2180     2.4370 h1         1 7GS       0.063200
     72 H32        -10.4040    -0.6790     1.6990 h1         1 7GS       0.063200
     73 C2           7.1070     0.2210     2.8380 c3         1 7GS      -0.034100
@<TRIPOS>BOND
     1     1     2 ar  
     2     1    13 ar  
     3     1    42 1   
     4     2     3 ar  
     5     2    14 1   
     6     3    15 1   
     7     3    16 ar  
     8     4    13 ar  
     9     4    16 ar  
    10     4    17 1   
    11     5    18 ar  
    12     5    19 ar  
    13     5    43 1   
    14     6     8 1   
    15     6    19 2   
    16     6    20 1   
    17     7    17 ar  
    18     7    22 ar  
    19     7    44 1   
    20     8    23 1   
    21     8    27 2   
    22     9    24 1   
    23     9    25 1   
    24     9    45 1   
    25     9    46 1   
    26    10    25 1   
    27    10    26 1   
    28    10    47 1   
    29    10    48 1   
    30    11    24 2   
    31    11    26 1   
    32    11    27 1   
    33    12    49 1   
    34    12    50 1   
    35    12    51 1   
    36    12    73 1   
    37    13    73 1   
    38    14    54 1   
    39    16    55 1   
    40    17    18 ar  
    41    18    56 1   
    42    19    22 ar  
    43    20    21 1   
    44    20    57 1   
    45    21    22 2   
    46    23    24 1   
    47    23    58 1   
    48    25    28 1   
    49    26    59 1   
    50    26    60 1   
    51    28    29 2   
    52    28    30 1   
    53    30    31 ar  
    54    30    35 ar  
    55    31    32 ar  
    56    31    61 1   
    57    32    33 ar  
    58    33    34 ar  
    59    33    36 1   
    60    34    35 ar  
    61    34    62 1   
    62    36    37 1   
    63    36    41 1   
    64    37    38 1   
    65    37    63 1   
    66    37    64 1   
    67    38    39 1   
    68    38    65 1   
    69    38    66 1   
    70    39    40 1   
    71    39    67 1   
    72    39    68 1   
    73    40    41 1   
    74    40    69 1   
    75    40    70 1   
    76    41    71 1   
    77    41    72 1   
    78    52    73 1   
    79    53    73 1   
@<TRIPOS>SUBSTRUCTURE
     1 7GS         1 TEMP              0 ****  ****    0 ROOT
