@<TRIPOS>MOLECULE
7GT
   64    68     1     0     0
SMALL
No Charge or Current Charge


@<TRIPOS>ATOM
      1 C33         -7.6280     2.1250    -1.6480 ca         1 7GT      -0.128500
      2 C34         -6.6830     1.0860    -1.7060 ca         1 7GT      -0.017500
      3 C32         -8.5360     2.1970    -0.5790 ca         1 7GT      -0.055000
      4 C4           0.5490     0.3230     2.3610 c6         1 7GT       0.092000
      5 C7           3.1450     0.2200     0.9460 c6         1 7GT       0.235500
      6 C6           2.0840    -0.9200     0.8400 c6         1 7GT       0.081000
      7 C13          7.6740    -1.0300    -2.5610 cc         1 7GT      -0.183100
      8 N5           0.6810    -0.4780     1.1060 n          1 7GT      -0.408800
      9 C19         -0.3800    -1.3050     0.6740 c          1 7GT       0.648100
     10 C2           3.0370     0.9660     2.3140 c6         1 7GT      -0.072700
     11 C3           1.5820     1.4700     2.4740 c6         1 7GT      -0.080400
     12 N8           4.5400    -0.2350     0.6210 nh         1 7GT      -0.774300
     13 C10          5.4090     0.6140    -0.1130 ca         1 7GT       0.437900
     14 C11          6.3420     0.1620    -1.0720 ca         1 7GT      -0.246800
     15 C12          6.6740    -1.1400    -1.6120 cd         1 7GT      -0.203200
     16 N14          7.9510     0.3520    -2.6070 na         1 7GT      -0.316400
     17 C15          7.1480     1.0620    -1.7270 ca         1 7GT       0.142500
     18 N16          7.0680     2.3810    -1.4870 nb         1 7GT      -0.234000
     19 C17          6.1470     2.7550    -0.5700 ca         1 7GT       0.179900
     20 N18          5.3150     1.9420     0.1230 nb         1 7GT      -0.311000
     21 O20         -0.1630    -2.4610     0.3370 o          1 7GT      -0.624100
     22 N21         -1.6890    -0.7850     0.5800 n          1 7GT      -0.419800
     23 C22         -2.0060     0.6650     0.4790 c5         1 7GT       0.113000
     24 C23         -3.3340     0.6510    -0.3180 c5         1 7GT      -0.072400
     25 C24         -3.9890    -0.6310     0.2670 c5         1 7GT      -0.312700
     26 C25         -2.8250    -1.6420     0.1750 c5         1 7GT       0.136000
     27 S26         -5.4240    -1.2190    -0.7450 sy         1 7GT       1.059500
     28 O27         -4.9600    -1.3500    -2.1330 o          1 7GT      -0.515500
     29 O28         -5.9870    -2.3770    -0.0380 o          1 7GT      -0.515500
     30 C29         -6.6470     0.1090    -0.6890 ca         1 7GT      -0.267500
     31 C30         -7.5570     0.1850     0.3870 ca         1 7GT      -0.017500
     32 C31         -8.4990     1.2270     0.4380 ca         1 7GT      -0.128500
     33 H1          -7.6550     2.8770    -2.4340 ha         1 7GT       0.122000
     34 H2          -5.9840     1.0480    -2.5400 ha         1 7GT       0.138000
     35 H3          -9.2660     3.0030    -0.5360 ha         1 7GT       0.119000
     36 H4          -0.4540     0.7430     2.4740 h1         1 7GT       0.044200
     37 H5           0.6820    -0.3590     3.2130 h1         1 7GT       0.044200
     38 H6           2.8440     0.9470     0.1750 h1         1 7GT       0.093700
     39 H7           2.1400    -1.3460    -0.1720 h1         1 7GT       0.057200
     40 H8           2.3270    -1.7270     1.5450 h1         1 7GT       0.057200
     41 H9           4.5680    -1.8600     2.0160 h1         1 7GT       0.043367
     42 H10          4.6340    -2.3420     0.3070 h1         1 7GT       0.043367
     43 H11          6.0680    -1.6420     1.1090 h1         1 7GT       0.043367
     44 H16          3.6920     1.8470     2.2870 hc         1 7GT       0.072700
     45 H17          1.3660     2.2210     1.7010 hc         1 7GT       0.050700
     46 H18          1.4610     1.9840     3.4370 hc         1 7GT       0.050700
     47 H19          6.2010    -2.0820    -1.3450 ha         1 7GT       0.203000
     48 H20          8.6430     0.7880    -3.2090 hn         1 7GT       0.361000
     49 H21          6.0660     3.8210    -0.3670 h5         1 7GT       0.041100
     50 H22         -2.1770     1.1030     1.4700 h1         1 7GT       0.052700
     51 H23         -1.2200     1.2360    -0.0330 h1         1 7GT       0.052700
     52 H24         -3.9310     1.5570    -0.1560 hc         1 7GT       0.068700
     53 H25         -3.1410     0.5680    -1.3950 hc         1 7GT       0.068700
     54 H26         -4.3420    -0.4920     1.2950 h1         1 7GT       0.104700
     55 H27         -2.6730    -2.0220    -0.8460 h1         1 7GT       0.072700
     56 H28         -2.9610    -2.4990     0.8500 h1         1 7GT       0.072700
     57 H29         -7.5380    -0.5570     1.1850 ha         1 7GT       0.138000
     58 H30         -9.2000     1.2840     1.2670 ha         1 7GT       0.122000
     59 C1           3.5010     0.1390     3.5530 c3         1 7GT      -0.088100
     60 C9           4.9730    -1.5920     1.0330 c3         1 7GT       0.211100
     61 H12          8.1740    -1.7740    -3.1780 h4         1 7GT       0.216000
     62 H13          4.5750    -0.0740     3.5080 hc         1 7GT       0.033367
     63 H14          3.3270     0.6950     4.4820 hc         1 7GT       0.033367
     64 H15          2.9710    -0.8170     3.6360 hc         1 7GT       0.033367
@<TRIPOS>BOND
     1     1     2 ar  
     2     1     3 ar  
     3     1    33 1   
     4     2    30 ar  
     5     2    34 1   
     6     3    32 ar  
     7     3    35 1   
     8     4     8 1   
     9     4    11 1   
    10     4    36 1   
    11     4    37 1   
    12     5     6 1   
    13     5    10 1   
    14     5    12 1   
    15     5    38 1   
    16     6     8 1   
    17     6    39 1   
    18     6    40 1   
    19     7    15 2   
    20     7    16 1   
    21     7    61 1   
    22     8     9 1   
    23     9    21 2   
    24     9    22 1   
    25    10    11 1   
    26    10    44 1   
    27    10    59 1   
    28    11    45 1   
    29    11    46 1   
    30    12    13 1   
    31    12    60 1   
    32    13    14 ar  
    33    13    20 ar  
    34    14    15 1   
    35    14    17 ar  
    36    15    47 1   
    37    16    17 1   
    38    16    48 1   
    39    17    18 ar  
    40    18    19 ar  
    41    19    20 ar  
    42    19    49 1   
    43    22    23 1   
    44    22    26 1   
    45    23    24 1   
    46    23    50 1   
    47    23    51 1   
    48    24    25 1   
    49    24    52 1   
    50    24    53 1   
    51    25    26 1   
    52    25    27 1   
    53    25    54 1   
    54    26    55 1   
    55    26    56 1   
    56    27    28 2   
    57    27    29 2   
    58    27    30 1   
    59    30    31 ar  
    60    31    32 ar  
    61    31    57 1   
    62    32    58 1   
    63    41    60 1   
    64    42    60 1   
    65    43    60 1   
    66    59    62 1   
    67    59    63 1   
    68    59    64 1   
@<TRIPOS>SUBSTRUCTURE
     1 7GT         1 TEMP              0 ****  ****    0 ROOT
