@<TRIPOS>MOLECULE
7GT
   64    68     1     0     0
SMALL
bcc


@<TRIPOS>ATOM
      1 C33         -7.2840     2.3690    -1.5050 ca         1 7GT      -0.146500
      2 C34         -6.3650     1.3390    -1.6400 ca         1 7GT      -0.035500
      3 C32         -8.2110     2.3440    -0.4720 ca         1 7GT      -0.073000
      4 C4           0.5340     0.0210     2.4660 c6         1 7GT       0.092000
      5 C7           2.9210     0.0260     0.8780 c6         1 7GT       0.235500
      6 C6           1.9710    -1.1740     0.9290 c6         1 7GT       0.081000
      7 C13          8.0720    -0.6670    -1.9380 cc         1 7GT      -0.133100
      8 N5           0.6310    -0.6780     1.1870 n          1 7GT      -0.475800
      9 C19         -0.4170    -1.4130     0.6870 c          1 7GT       0.782100
     10 C2           2.9060     0.8520     2.1730 c6         1 7GT      -0.072700
     11 C3           1.4530     1.2280     2.4760 c6         1 7GT      -0.080400
     12 N8           4.2620    -0.3640     0.4490 nh         1 7GT      -0.774300
     13 C10          4.9620     0.4550    -0.3680 ca         1 7GT       0.766200
     14 C11          6.1840     0.1010    -0.9960 ca         1 7GT      -0.377400
     15 C12          7.0510    -1.0360    -1.1150 cd         1 7GT      -0.153200
     16 N14          7.8890     0.6300    -2.3390 na         1 7GT      -0.266100
     17 C15          6.7520     1.1140    -1.7920 ca         1 7GT       0.470800
     18 N16          6.2550     2.3350    -2.0030 nb         1 7GT      -0.760000
     19 C17          5.1120     2.5240    -1.3800 ca         1 7GT       0.705900
     20 N18          4.4580     1.6750    -0.5970 nb         1 7GT      -0.837000
     21 O20         -0.2740    -2.5280     0.2000 o          1 7GT      -0.624100
     22 N21         -1.6440    -0.8180     0.7400 n          1 7GT      -0.486800
     23 C22         -1.8800     0.6230     0.6600 c5         1 7GT       0.113000
     24 C23         -3.1450     0.7360    -0.1820 c5         1 7GT      -0.072400
     25 C24         -3.8930    -0.5200     0.2390 c5         1 7GT      -0.201900
     26 C25         -2.7990    -1.5860     0.2960 c5         1 7GT       0.136000
     27 S26         -5.2080    -1.0160    -0.8720 sy         1 7GT       1.090300
     28 O27         -4.6940    -1.0280    -2.2400 o          1 7GT      -0.586300
     29 O28         -5.7950    -2.2410    -0.3320 o          1 7GT      -0.586300
     30 C29         -6.3910     0.2940    -0.7270 ca         1 7GT      -0.267500
     31 C30         -7.3160     0.2530     0.3090 ca         1 7GT      -0.035500
     32 C31         -8.2280     1.2900     0.4330 ca         1 7GT      -0.146500
     33 H1          -7.2760     3.1880    -2.2110 ha         1 7GT       0.140000
     34 H2          -5.6470     1.3560    -2.4500 ha         1 7GT       0.156000
     35 H3          -8.9270     3.1500    -0.3720 ha         1 7GT       0.137000
     36 H4          -0.4890     0.3270     2.6660 h1         1 7GT       0.044200
     37 H5           0.8020    -0.6750     3.2720 h1         1 7GT       0.044200
     38 H6           2.5250     0.6720     0.0950 h1         1 7GT       0.093700
     39 H7           1.9920    -1.6850    -0.0320 h1         1 7GT       0.057200
     40 H8           2.2510    -1.9090     1.6930 h1         1 7GT       0.057200
     41 H9           4.3030    -1.9650     1.7780 h1         1 7GT       0.043367
     42 H10          4.7800    -2.4010     0.1450 h1         1 7GT       0.043367
     43 H11          5.8730    -1.4820     1.2010 h1         1 7GT       0.043367
     44 H16          3.4560     1.7720     1.9600 hc         1 7GT       0.072700
     45 H17          1.0940     1.9480     1.7340 hc         1 7GT       0.050700
     46 H18          1.3880     1.7210     3.4490 hc         1 7GT       0.050700
     47 H19          6.9510    -2.0090    -0.6670 ha         1 7GT       0.153000
     48 H20          8.4930     1.1430    -2.9600 hn         1 7GT       0.310700
     49 H21          4.6420     3.4930    -1.5150 h5         1 7GT       0.041100
     50 H22         -2.0530     1.0570     1.6480 h1         1 7GT       0.052700
     51 H23         -1.0310     1.1390     0.2110 h1         1 7GT       0.052700
     52 H24         -3.6920     1.6560     0.0190 hc         1 7GT       0.068700
     53 H25         -2.8990     0.6970    -1.2440 hc         1 7GT       0.068700
     54 H26         -4.3620    -0.3870     1.2180 h1         1 7GT       0.104700
     55 H27         -2.6280    -2.0280    -0.6900 h1         1 7GT       0.072700
     56 H28         -3.0420    -2.3890     0.9920 h1         1 7GT       0.072700
     57 H29         -7.3330    -0.5710     1.0100 ha         1 7GT       0.156000
     58 H30         -8.9540     1.2710     1.2340 ha         1 7GT       0.140000
     59 C1           3.5800     0.1750     3.3640 c3         1 7GT      -0.088100
     60 C9           4.8350    -1.6140     0.9010 c3         1 7GT       0.211100
     61 H12          8.9240    -1.2330    -2.2760 h4         1 7GT       0.166000
     62 H13          4.6310    -0.0340     3.1670 hc         1 7GT       0.033367
     63 H14          3.5460     0.8350     4.2330 hc         1 7GT       0.033367
     64 H15          3.1020    -0.7630     3.6520 hc         1 7GT       0.033367
@<TRIPOS>BOND
     1     1     2 ar  
     2     1     3 ar  
     3     1    33 1   
     4     2    30 ar  
     5     2    34 1   
     6     3    32 ar  
     7     3    35 1   
     8     4     8 1   
     9     4    11 1   
    10     4    36 1   
    11     4    37 1   
    12     5     6 1   
    13     5    10 1   
    14     5    12 1   
    15     5    38 1   
    16     6     8 1   
    17     6    39 1   
    18     6    40 1   
    19     7    15 2   
    20     7    16 1   
    21     7    61 1   
    22     8     9 1   
    23     9    21 2   
    24     9    22 1   
    25    10    11 1   
    26    10    44 1   
    27    10    59 1   
    28    11    45 1   
    29    11    46 1   
    30    12    13 1   
    31    12    60 1   
    32    13    14 ar  
    33    13    20 ar  
    34    14    15 1   
    35    14    17 ar  
    36    15    47 1   
    37    16    17 1   
    38    16    48 1   
    39    17    18 ar  
    40    18    19 ar  
    41    19    20 ar  
    42    19    49 1   
    43    22    23 1   
    44    22    26 1   
    45    23    24 1   
    46    23    50 1   
    47    23    51 1   
    48    24    25 1   
    49    24    52 1   
    50    24    53 1   
    51    25    26 1   
    52    25    27 1   
    53    25    54 1   
    54    26    55 1   
    55    26    56 1   
    56    27    28 2   
    57    27    29 2   
    58    27    30 1   
    59    30    31 ar  
    60    31    32 ar  
    61    31    57 1   
    62    32    58 1   
    63    41    60 1   
    64    42    60 1   
    65    43    60 1   
    66    59    62 1   
    67    59    63 1   
    68    59    64 1   
@<TRIPOS>SUBSTRUCTURE
     1 7GT         1 TEMP              0 ****  ****    0 ROOT
