@<TRIPOS>MOLECULE
7GV
   51    54     1     0     0
SMALL
No Charge or Current Charge


@<TRIPOS>ATOM
      1 C4           2.3600    -1.2740     1.2680 c6         1 7GV       0.091000
      2 C7          -0.3920    -0.4660     0.5440 c6         1 7GV       0.233500
      3 C6           0.7770     0.5600     0.6780 c6         1 7GV       0.084000
      4 C13         -5.2240     2.3390    -1.2410 cc         1 7GV      -0.185100
      5 N5           2.1360    -0.0290     0.4720 n          1 7GV      -0.411800
      6 C19          3.2130     0.8430     0.1910 c          1 7GV       0.648100
      7 C2          -0.1670    -1.7020     1.4700 c6         1 7GV      -0.073700
      8 C3           1.2170    -2.3090     1.1330 c6         1 7GV      -0.080400
      9 N8          -1.7520     0.1590     0.7000 nh         1 7GV      -0.771300
     10 C10         -2.8280    -0.2730    -0.1180 ca         1 7GV       0.437900
     11 C11         -3.8360     0.5770    -0.6220 ca         1 7GV      -0.247800
     12 C12         -4.0800     2.0020    -0.5410 cd         1 7GV      -0.203200
     13 N14         -5.6810     1.1090    -1.7610 na         1 7GV      -0.316400
     14 C15         -4.8450     0.0630    -1.4010 ca         1 7GV       0.142500
     15 N16         -4.8980    -1.2430    -1.7110 nb         1 7GV      -0.235000
     16 C17         -3.8980    -2.0040    -1.2100 ca         1 7GV       0.180900
     17 N18         -2.8690    -1.5860    -0.4360 nb         1 7GV      -0.312000
     18 O20          3.0950     2.0470     0.3760 o          1 7GV      -0.633100
     19 N21          4.4130     0.3340    -0.3520 n          1 7GV      -0.420800
     20 C22          4.5300    -0.9700    -1.0490 c5         1 7GV       0.103500
     21 C23          5.7030    -0.7050    -2.0270 c5         1 7GV      -0.097400
     22 C24          6.6120     0.2070    -1.1690 c5         1 7GV      -0.097400
     23 C25          5.5750     1.2120    -0.6100 c5         1 7GV       0.103500
     24 H1           3.3030    -1.7600     1.0100 h1         1 7GV       0.043700
     25 H2           2.4530    -0.9860     2.3250 h1         1 7GV       0.043700
     26 H3          -0.3140    -0.8370    -0.4910 h1         1 7GV       0.096700
     27 H4           0.6170     1.3590    -0.0600 h1         1 7GV       0.055200
     28 H5           0.7550     1.0280     1.6710 h1         1 7GV       0.055200
     29 H6          -1.3460     1.0860     2.5880 h1         1 7GV       0.043033
     30 H7          -1.6210     2.2170     1.2450 h1         1 7GV       0.043033
     31 H8          -2.9860     1.3330     1.9830 h1         1 7GV       0.043033
     32 H13         -0.9260    -2.4600     1.2360 hc         1 7GV       0.069700
     33 H14          1.2080    -2.6970     0.1050 hc         1 7GV       0.050700
     34 H15          1.4220    -3.1730     1.7800 hc         1 7GV       0.050700
     35 H16         -3.4540     2.7290    -0.0300 ha         1 7GV       0.202000
     36 H17         -6.5100     0.9910    -2.3350 hn         1 7GV       0.361000
     37 H18         -3.9230    -3.0650    -1.4550 h5         1 7GV       0.041100
     38 H19          4.8070    -1.7700    -0.3510 h1         1 7GV       0.051950
     39 H20          3.6080    -1.2560    -1.5730 h1         1 7GV       0.051950
     40 H21          6.2010    -1.6280    -2.3450 hc         1 7GV       0.053700
     41 H22          5.3570    -0.1870    -2.9310 hc         1 7GV       0.053700
     42 H23          7.0980    -0.3550    -0.3630 hc         1 7GV       0.053700
     43 H24          7.3990     0.6980    -1.7530 hc         1 7GV       0.053700
     44 H25          5.3220     1.9830    -1.3510 h1         1 7GV       0.051950
     45 H26          5.9320     1.7080     0.3020 h1         1 7GV       0.051950
     46 C9          -1.9340     1.2580     1.6790 c3         1 7GV       0.210100
     47 C1          -0.3170    -1.4180     2.9960 c3         1 7GV      -0.089100
     48 H9          -5.7170     3.2940    -1.4100 h4         1 7GV       0.216000
     49 H10         -1.3470    -1.1450     3.2490 hc         1 7GV       0.033033
     50 H11         -0.0710    -2.3090     3.5860 hc         1 7GV       0.033033
     51 H12          0.3390    -0.6080     3.3340 hc         1 7GV       0.033033
@<TRIPOS>BOND
     1     1     5 1   
     2     1     8 1   
     3     1    24 1   
     4     1    25 1   
     5     2     3 1   
     6     2     7 1   
     7     2     9 1   
     8     2    26 1   
     9     3     5 1   
    10     3    27 1   
    11     3    28 1   
    12     4    12 2   
    13     4    13 1   
    14     4    48 1   
    15     5     6 1   
    16     6    18 2   
    17     6    19 1   
    18     7     8 1   
    19     7    32 1   
    20     7    47 1   
    21     8    33 1   
    22     8    34 1   
    23     9    10 1   
    24     9    46 1   
    25    10    11 ar  
    26    10    17 ar  
    27    11    12 1   
    28    11    14 ar  
    29    12    35 1   
    30    13    14 1   
    31    13    36 1   
    32    14    15 ar  
    33    15    16 ar  
    34    16    17 ar  
    35    16    37 1   
    36    19    20 1   
    37    19    23 1   
    38    20    21 1   
    39    20    38 1   
    40    20    39 1   
    41    21    22 1   
    42    21    40 1   
    43    21    41 1   
    44    22    23 1   
    45    22    42 1   
    46    22    43 1   
    47    23    44 1   
    48    23    45 1   
    49    29    46 1   
    50    30    46 1   
    51    31    46 1   
    52    47    49 1   
    53    47    50 1   
    54    47    51 1   
@<TRIPOS>SUBSTRUCTURE
     1 7GV         1 TEMP              0 ****  ****    0 ROOT
