@<TRIPOS>MOLECULE
7GV
   51    54     1     0     0
SMALL
abcg2


@<TRIPOS>ATOM
      1 C4           2.3680    -1.0320     1.5090 c6         1 7GV       0.091000
      2 C7          -0.2020    -0.2220     0.5140 c6         1 7GV       0.233500
      3 C6           0.9250     0.7760     0.7980 c6         1 7GV       0.084000
      4 C13         -5.7080     1.6640    -0.5890 cc         1 7GV      -0.185100
      5 N5           2.1880     0.0910     0.5940 n          1 7GV      -0.411800
      6 C19          3.2640     0.8520     0.1880 c          1 7GV       0.648100
      7 C2          -0.1300    -1.4580     1.4240 c6         1 7GV      -0.073700
      8 C3           1.2730    -2.0620     1.2960 c6         1 7GV      -0.080400
      9 N8          -1.5150     0.4170     0.5030 nh         1 7GV      -0.771300
     10 C10         -2.4540    -0.0060    -0.3720 ca         1 7GV       0.437900
     11 C11         -3.7400     0.5850    -0.5080 ca         1 7GV      -0.247800
     12 C12         -4.4990     1.6740     0.0380 cd         1 7GV      -0.203200
     13 N14         -5.7440     0.6380    -1.4960 na         1 7GV      -0.316400
     14 C15         -4.5660    -0.0240    -1.4720 ca         1 7GV       0.142500
     15 N16         -4.2560    -1.0660    -2.2480 nb         1 7GV      -0.235000
     16 C17         -3.0350    -1.5040    -2.0300 ca         1 7GV       0.180900
     17 N18         -2.1460    -1.0450    -1.1580 nb         1 7GV      -0.312000
     18 O20          3.2510     2.0790     0.2160 o          1 7GV      -0.633100
     19 N21          4.3370     0.1610    -0.2750 n          1 7GV      -0.420800
     20 C22          4.2730    -1.1510    -0.9210 c5         1 7GV       0.103500
     21 C23          5.3660    -1.0800    -1.9800 c5         1 7GV      -0.097400
     22 C24          6.4040    -0.1760    -1.3240 c5         1 7GV      -0.097400
     23 C25          5.5430     0.8890    -0.6580 c5         1 7GV       0.103500
     24 H1           3.3430    -1.4900     1.3670 h1         1 7GV       0.043700
     25 H2           2.3500    -0.6610     2.5430 h1         1 7GV       0.043700
     26 H3          -0.0280    -0.5730    -0.5030 h1         1 7GV       0.096700
     27 H4           0.8460     1.6100     0.1030 h1         1 7GV       0.055200
     28 H5           0.8780     1.1890     1.8130 h1         1 7GV       0.055200
     29 H6          -1.0610     1.5210     2.2160 h1         1 7GV       0.043033
     30 H7          -1.9510     2.4260     1.0050 h1         1 7GV       0.043033
     31 H8          -2.7630     1.2080     2.0050 h1         1 7GV       0.043033
     32 H13         -0.8420    -2.1890     1.0300 hc         1 7GV       0.069700
     33 H14          1.3950    -2.4970     0.3000 hc         1 7GV       0.050700
     34 H15          1.3940    -2.8730     2.0180 hc         1 7GV       0.050700
     35 H16         -4.2100     2.3860     0.7900 ha         1 7GV       0.202000
     36 H17         -6.5200     0.4140    -2.0980 hn         1 7GV       0.361000
     37 H18         -2.7090    -2.3480    -2.6310 h5         1 7GV       0.041100
     38 H19          4.4860    -1.9600    -0.2160 h1         1 7GV       0.051950
     39 H20          3.2810    -1.3330    -1.3370 h1         1 7GV       0.051950
     40 H21          5.7490    -2.0660    -2.2410 hc         1 7GV       0.053700
     41 H22          4.9840    -0.6160    -2.8920 hc         1 7GV       0.053700
     42 H23          6.9730    -0.7350    -0.5780 hc         1 7GV       0.053700
     43 H24          7.1130     0.2570    -2.0290 hc         1 7GV       0.053700
     44 H25          5.3110     1.6910    -1.3650 h1         1 7GV       0.051950
     45 H26          6.0260     1.3430     0.2090 h1         1 7GV       0.051950
     46 C9          -1.8440     1.4440     1.4700 c3         1 7GV       0.210100
     47 C1          -0.5060    -1.1810     2.8770 c3         1 7GV      -0.089100
     48 H9          -6.5560     2.3160    -0.4600 h4         1 7GV       0.216000
     49 H10         -1.5470    -0.8720     2.9700 hc         1 7GV       0.033033
     50 H11         -0.3870    -2.0860     3.4740 hc         1 7GV       0.033033
     51 H12          0.1100    -0.4070     3.3380 hc         1 7GV       0.033033
@<TRIPOS>BOND
     1     1     5 1   
     2     1     8 1   
     3     1    24 1   
     4     1    25 1   
     5     2     3 1   
     6     2     7 1   
     7     2     9 1   
     8     2    26 1   
     9     3     5 1   
    10     3    27 1   
    11     3    28 1   
    12     4    12 2   
    13     4    13 1   
    14     4    48 1   
    15     5     6 1   
    16     6    18 2   
    17     6    19 1   
    18     7     8 1   
    19     7    32 1   
    20     7    47 1   
    21     8    33 1   
    22     8    34 1   
    23     9    10 1   
    24     9    46 1   
    25    10    11 ar  
    26    10    17 ar  
    27    11    12 1   
    28    11    14 ar  
    29    12    35 1   
    30    13    14 1   
    31    13    36 1   
    32    14    15 ar  
    33    15    16 ar  
    34    16    17 ar  
    35    16    37 1   
    36    19    20 1   
    37    19    23 1   
    38    20    21 1   
    39    20    38 1   
    40    20    39 1   
    41    21    22 1   
    42    21    40 1   
    43    21    41 1   
    44    22    23 1   
    45    22    42 1   
    46    22    43 1   
    47    23    44 1   
    48    23    45 1   
    49    29    46 1   
    50    30    46 1   
    51    31    46 1   
    52    47    49 1   
    53    47    50 1   
    54    47    51 1   
@<TRIPOS>SUBSTRUCTURE
     1 7GV         1 TEMP              0 ****  ****    0 ROOT
