@<TRIPOS>MOLECULE
7GW
   24    24     1     0     0
SMALL
abcg2


@<TRIPOS>ATOM
      1 O1           3.1580     1.6850    -0.0700 oh         1 7GW      -0.704000
      2 C1           2.7450     0.3390    -0.0140 c3         1 7GW       0.163600
      3 C2           1.3210     0.2460    -0.5030 c5         1 7GW       0.135300
      4 O2           0.4390     0.9030     0.4020 os         1 7GW      -0.425000
      5 C3          -0.7750     0.1900     0.5100 c5         1 7GW       0.142300
      6 C4          -1.9620     1.1410     0.3880 c3         1 7GW       0.379300
      7 O3          -1.9330     1.7120    -0.8830 oh         1 7GW      -0.743500
      8 O4          -3.1630     0.4750     0.6570 oh         1 7GW      -0.743500
      9 C5          -0.7120    -0.8910    -0.5730 c5         1 7GW       0.139300
     10 O5          -1.5440    -1.9650    -0.2330 oh         1 7GW      -0.696000
     11 C6           0.7860    -1.1790    -0.6350 c5         1 7GW       0.102300
     12 O6           1.1240    -2.0100     0.4470 oh         1 7GW      -0.692000
     13 H1           4.0500     1.7370     0.2830 ho         1 7GW       0.503000
     14 H2           3.3680    -0.3000    -0.6570 h1         1 7GW       0.024700
     15 H3           2.8120    -0.0590     1.0050 h1         1 7GW       0.024700
     16 H4           1.2620     0.7260    -1.4910 h1         1 7GW       0.066700
     17 H5          -0.8410    -0.2910     1.4960 h1         1 7GW       0.089700
     18 H6          -2.5180     2.4770    -0.8990 ho         1 7GW       0.518500
     19 H7          -3.1870    -0.3580     0.1690 ho         1 7GW       0.518500
     20 H8          -0.9980    -0.4620    -1.5410 h1         1 7GW       0.062700
     21 H9          -1.6530    -2.5260    -1.0070 ho         1 7GW       0.509000
     22 H10          1.0840    -1.6210    -1.5930 h1         1 7GW       0.046700
     23 H11          2.0170    -2.3420     0.3150 ho         1 7GW       0.501000
     24 H12         -1.8840     1.9150     1.1610 h2         1 7GW       0.074700
@<TRIPOS>BOND
     1     1     2 1   
     2     1    13 1   
     3     2     3 1   
     4     2    14 1   
     5     2    15 1   
     6     3     4 1   
     7     3    11 1   
     8     3    16 1   
     9     4     5 1   
    10     5     6 1   
    11     5     9 1   
    12     5    17 1   
    13     6     7 1   
    14     6     8 1   
    15     6    24 1   
    16     7    18 1   
    17     8    19 1   
    18     9    10 1   
    19     9    11 1   
    20     9    20 1   
    21    10    21 1   
    22    11    12 1   
    23    11    22 1   
    24    12    23 1   
@<TRIPOS>SUBSTRUCTURE
     1 7GW         1 TEMP              0 ****  ****    0 ROOT
