@<TRIPOS>MOLECULE
7GW
   24    24     1     0     0
SMALL
No Charge or Current Charge


@<TRIPOS>ATOM
      1 O1           3.3870     1.6050    -0.1490 oh         1 7GW      -0.704000
      2 C1           2.8090     0.2940    -0.0060 c3         1 7GW       0.163600
      3 C2           1.3530     0.2510    -0.5530 c5         1 7GW       0.135300
      4 O2           0.4410     0.9810     0.3190 os         1 7GW      -0.425000
      5 C3          -0.8040     0.2350     0.4070 c5         1 7GW       0.142300
      6 C4          -2.0650     1.1590     0.4520 c3         1 7GW       0.379300
      7 O3          -2.2490     1.8800    -0.7520 oh         1 7GW      -0.743500
      8 O4          -3.2360     0.3760     0.5600 oh         1 7GW      -0.743500
      9 C5          -0.7670    -0.7680    -0.7840 c5         1 7GW       0.139300
     10 O5          -1.6370    -1.8900    -0.5940 oh         1 7GW      -0.696000
     11 C6           0.7290    -1.1820    -0.7230 c5         1 7GW       0.102300
     12 O6           0.9760    -2.0800     0.3790 oh         1 7GW      -0.692000
     13 H1           4.2760     1.5760     0.2750 ho         1 7GW       0.503000
     14 H2           3.4110    -0.4370    -0.5620 h1         1 7GW       0.024700
     15 H3           2.8050    -0.0120     1.0490 h1         1 7GW       0.024700
     16 H4           1.3500     0.7540    -1.5310 h1         1 7GW       0.066700
     17 H5          -0.7780    -0.3170     1.3570 h1         1 7GW       0.089700
     18 H6          -2.8650     2.6110    -0.5240 ho         1 7GW       0.518500
     19 H7          -3.0210    -0.4490     0.0600 ho         1 7GW       0.518500
     20 H8          -0.9920    -0.2600    -1.7330 h1         1 7GW       0.062700
     21 H9          -1.0720    -2.5500    -0.1180 ho         1 7GW       0.509000
     22 H10          1.0500    -1.6400    -1.6690 h1         1 7GW       0.046700
     23 H11          1.8860    -2.4460     0.2700 ho         1 7GW       0.501000
     24 H12         -1.9910     1.8520     1.3030 h2         1 7GW       0.074700
@<TRIPOS>BOND
     1     1     2 1   
     2     1    13 1   
     3     2     3 1   
     4     2    14 1   
     5     2    15 1   
     6     3     4 1   
     7     3    11 1   
     8     3    16 1   
     9     4     5 1   
    10     5     6 1   
    11     5     9 1   
    12     5    17 1   
    13     6     7 1   
    14     6     8 1   
    15     6    24 1   
    16     7    18 1   
    17     8    19 1   
    18     9    10 1   
    19     9    11 1   
    20     9    20 1   
    21    10    21 1   
    22    11    12 1   
    23    11    22 1   
    24    12    23 1   
@<TRIPOS>SUBSTRUCTURE
     1 7GW         1 TEMP              0 ****  ****    0 ROOT
