@<TRIPOS>MOLECULE
7GX
   48    51     1     0     0
SMALL
No Charge or Current Charge


@<TRIPOS>ATOM
      1 C4           6.5140    -0.8390    -0.3070 ca         1 7GX      -0.209000
      2 C7           5.0010     0.9270     1.2550 ca         1 7GX      -0.059000
      3 C6           6.4000     0.9260     1.3560 ca         1 7GX      -0.150000
      4 C9           2.8420     0.0850     0.3110 cp         1 7GX       0.017000
      5 C13          0.7850     1.2610    -0.2080 ca         1 7GX      -0.053200
      6 C21         -5.1080    -0.0020     0.1520 ca         1 7GX      -0.075000
      7 C8           4.3310     0.0390     0.3800 cp         1 7GX      -0.088000
      8 C26         -6.1040     0.9160    -0.2460 ca         1 7GX       0.294900
      9 C1           4.0320    -1.0910    -2.7210 c3         1 7GX      -0.085100
     10 C3           5.1070    -0.8520    -0.4180 ca         1 7GX      -0.013300
     11 C5           7.1540     0.0410     0.5770 ca         1 7GX       0.147100
     12 C10          2.0500    -1.0150     0.7500 ca         1 7GX      -0.134000
     13 C11          0.6400    -0.9730     0.6970 ca         1 7GX      -0.027000
     14 C12          0.0440     0.1980     0.2020 ca         1 7GX      -0.181900
     15 C14          2.1850     1.2500    -0.1660 ca         1 7GX      -0.124000
     16 N15         -0.0710     2.2580    -0.6320 na         1 7GX      -0.037400
     17 N16         -1.4080     1.8440    -0.4990 nc         1 7GX      -0.515100
     18 C17         -1.3440     0.5900     0.0080 cd         1 7GX       0.289900
     19 O19         -2.4890    -1.4050     0.7830 o          1 7GX      -0.580100
     20 N20         -3.7410     0.3880     0.0290 ns         1 7GX      -0.128000
     21 C22         -5.5260    -1.2550     0.6500 ca         1 7GX      -0.097000
     22 C23         -6.9050    -1.5200     0.7210 ca         1 7GX      -0.137000
     23 C24         -7.8220    -0.5400     0.2980 ca         1 7GX       0.324300
     24 N25         -7.4310     0.6630    -0.1780 nb         1 7GX      -0.653000
     25 C27         -9.3180    -0.7830     0.3640 c3         1 7GX      -0.137400
     26 O28          8.5130     0.0440     0.6740 oh         1 7GX      -0.532100
     27 H1           7.1070    -1.5140    -0.9180 ha         1 7GX       0.113000
     28 H2           4.4220     1.6180     1.8650 ha         1 7GX       0.118000
     29 H3           6.8980     1.6120     2.0370 ha         1 7GX       0.131000
     30 H4          -5.8270     1.8960    -0.6360 h4         1 7GX       0.014100
     31 H5           4.8860    -0.5980    -3.1990 hc         1 7GX       0.036033
     32 H6           3.6070    -1.8100    -3.4320 hc         1 7GX       0.036033
     33 H7           3.2700    -0.3320    -2.5070 hc         1 7GX       0.036033
     34 H8           3.6120    -2.3250    -0.9950 hc         1 7GX       0.050200
     35 H9           5.1810    -2.6010    -1.7000 hc         1 7GX       0.050200
     36 H10          2.5400    -1.9040     1.1400 ha         1 7GX       0.123000
     37 H11          0.0480    -1.8210     1.0330 ha         1 7GX       0.143000
     38 H12          2.7590     2.1100    -0.5000 ha         1 7GX       0.126000
     39 H13          0.1880     3.1750    -0.9950 hn         1 7GX       0.382000
     40 H14         -3.6090     1.3210    -0.3440 hn         1 7GX       0.173000
     41 H15         -4.8240    -2.0160     0.9780 ha         1 7GX       0.151000
     42 H16         -7.2610    -2.4730     1.1020 ha         1 7GX       0.123000
     43 H17         -9.7480    -0.3210     1.2600 hc         1 7GX       0.048700
     44 H18         -9.8300    -0.3640    -0.5110 hc         1 7GX       0.048700
     45 H19         -9.5470    -1.8540     0.3970 hc         1 7GX       0.048700
     46 H20          8.8670    -0.6340     0.0600 ho         1 7GX       0.465000
     47 C18         -2.5470    -0.2650     0.3220 c          1 7GX       0.563800
     48 C2           4.4730    -1.8080    -1.4300 c3         1 7GX      -0.038100
@<TRIPOS>BOND
     1     1    10 ar  
     2     1    11 ar  
     3     1    27 1   
     4     2     3 ar  
     5     2     7 ar  
     6     2    28 1   
     7     3    11 ar  
     8     3    29 1   
     9     4     7 1   
    10     4    12 ar  
    11     4    15 ar  
    12     5    14 ar  
    13     5    15 ar  
    14     5    16 1   
    15     6     8 ar  
    16     6    20 1   
    17     6    21 ar  
    18     7    10 ar  
    19     8    24 ar  
    20     8    30 1   
    21     9    31 1   
    22     9    32 1   
    23     9    33 1   
    24     9    48 1   
    25    10    48 1   
    26    11    26 1   
    27    12    13 ar  
    28    12    36 1   
    29    13    14 ar  
    30    13    37 1   
    31    14    18 1   
    32    15    38 1   
    33    16    17 1   
    34    16    39 1   
    35    17    18 2   
    36    18    47 1   
    37    19    47 2   
    38    20    40 1   
    39    20    47 1   
    40    21    22 ar  
    41    21    41 1   
    42    22    23 ar  
    43    22    42 1   
    44    23    24 ar  
    45    23    25 1   
    46    25    43 1   
    47    25    44 1   
    48    25    45 1   
    49    26    46 1   
    50    34    48 1   
    51    35    48 1   
@<TRIPOS>SUBSTRUCTURE
     1 7GX         1 TEMP              0 ****  ****    0 ROOT
