@<TRIPOS>MOLECULE
7GX
   48    51     1     0     0
SMALL
bcc


@<TRIPOS>ATOM
      1 C4           6.4140    -0.8530    -0.2690 ca         1 7GX      -0.227000
      2 C7           4.9210     0.9060     1.2270 ca         1 7GX      -0.077000
      3 C6           6.2980     0.9050     1.3650 ca         1 7GX      -0.168000
      4 C9           2.7860     0.0780     0.2760 cp         1 7GX       0.017000
      5 C13          0.7570     1.1940    -0.2340 ca         1 7GX      -0.053200
      6 C21         -5.0430    -0.0020     0.1180 ca         1 7GX      -0.047700
      7 C8           4.2660     0.0350     0.3590 cp         1 7GX      -0.088000
      8 C26         -6.0450     0.9000    -0.2500 ca         1 7GX       0.360200
      9 C1           4.1460    -0.9900    -2.7560 c3         1 7GX      -0.085100
     10 C3           5.0290    -0.8540    -0.4100 ca         1 7GX      -0.013300
     11 C5           7.0540     0.0110     0.6140 ca         1 7GX       0.147100
     12 C10          2.0230    -1.0240     0.7390 ca         1 7GX      -0.152000
     13 C11          0.6490    -1.0290     0.7140 ca         1 7GX      -0.045000
     14 C12         -0.0070     0.1050     0.2140 ca         1 7GX      -0.181900
     15 C14          2.1540     1.2030    -0.2110 ca         1 7GX      -0.142000
     16 N15         -0.1350     2.1270    -0.6580 na         1 7GX       0.012900
     17 N16         -1.3840     1.7280    -0.5200 nc         1 7GX      -0.515100
     18 C17         -1.3510     0.5200    -0.0000 cd         1 7GX       0.289900
     19 O19         -2.5350    -1.3400     0.8020 o          1 7GX      -0.580100
     20 N20         -3.7250     0.4120    -0.0520 ns         1 7GX      -0.454100
     21 C22         -5.4530    -1.2360     0.6160 ca         1 7GX      -0.115000
     22 C23         -6.8120    -1.4850     0.7190 ca         1 7GX      -0.220300
     23 C24         -7.7390    -0.5240     0.3320 ca         1 7GX       0.389600
     24 N25         -7.3370     0.6520    -0.1500 nb         1 7GX      -0.653000
     25 C27         -9.2140    -0.7510     0.4580 c3         1 7GX      -0.137400
     26 O28          8.3930     0.0240     0.7740 oh         1 7GX      -0.493100
     27 H1           7.0050    -1.5380    -0.8700 ha         1 7GX       0.131000
     28 H2           4.3350     1.5960     1.8220 ha         1 7GX       0.136000
     29 H3           6.7840     1.5840     2.0550 ha         1 7GX       0.149000
     30 H4          -5.7660     1.8720    -0.6490 h4         1 7GX       0.014100
     31 H5           5.0670    -0.5690    -3.1610 hc         1 7GX       0.036033
     32 H6           3.7220    -1.6560    -3.5080 hc         1 7GX       0.036033
     33 H7           3.4420    -0.1720    -2.6030 hc         1 7GX       0.036033
     34 H8           3.4740    -2.1760    -1.0960 hc         1 7GX       0.050200
     35 H9           5.0780    -2.5850    -1.6530 hc         1 7GX       0.050200
     36 H10          2.5480    -1.8840     1.1340 ha         1 7GX       0.141000
     37 H11          0.0950    -1.8810     1.0790 ha         1 7GX       0.161000
     38 H12          2.7180     2.0530    -0.5740 ha         1 7GX       0.144000
     39 H13          0.0600     3.0350    -1.0480 hn         1 7GX       0.331700
     40 H14         -3.6040     1.3270    -0.4660 hn         1 7GX       0.339500
     41 H15         -4.7450    -1.9910     0.9140 ha         1 7GX       0.169000
     42 H16         -7.1500    -2.4380     1.1030 ha         1 7GX       0.141000
     43 H17         -9.6170    -0.2000     1.3110 hc         1 7GX       0.048700
     44 H18         -9.7420    -0.4030    -0.4290 hc         1 7GX       0.048700
     45 H19         -9.4460    -1.8040     0.6080 hc         1 7GX       0.048700
     46 H20          8.8040    -0.6570     0.2290 ho         1 7GX       0.426000
     47 C18         -2.5840    -0.2320     0.2930 c          1 7GX       0.630800
     48 C2           4.4100    -1.7450    -1.4540 c3         1 7GX      -0.038100
@<TRIPOS>BOND
     1     1    10 ar  
     2     1    11 ar  
     3     1    27 1   
     4     2     3 ar  
     5     2     7 ar  
     6     2    28 1   
     7     3    11 ar  
     8     3    29 1   
     9     4     7 1   
    10     4    12 ar  
    11     4    15 ar  
    12     5    14 ar  
    13     5    15 ar  
    14     5    16 1   
    15     6     8 ar  
    16     6    20 1   
    17     6    21 ar  
    18     7    10 ar  
    19     8    24 ar  
    20     8    30 1   
    21     9    31 1   
    22     9    32 1   
    23     9    33 1   
    24     9    48 1   
    25    10    48 1   
    26    11    26 1   
    27    12    13 ar  
    28    12    36 1   
    29    13    14 ar  
    30    13    37 1   
    31    14    18 1   
    32    15    38 1   
    33    16    17 1   
    34    16    39 1   
    35    17    18 2   
    36    18    47 1   
    37    19    47 2   
    38    20    40 1   
    39    20    47 1   
    40    21    22 ar  
    41    21    41 1   
    42    22    23 ar  
    43    22    42 1   
    44    23    24 ar  
    45    23    25 1   
    46    25    43 1   
    47    25    44 1   
    48    25    45 1   
    49    26    46 1   
    50    34    48 1   
    51    35    48 1   
@<TRIPOS>SUBSTRUCTURE
     1 7GX         1 TEMP              0 ****  ****    0 ROOT
