@<TRIPOS>MOLECULE
7GY
   36    38     1     0     0
SMALL
bcc


@<TRIPOS>ATOM
      1 C4          -4.1960    -0.7450     0.0360 ca         1 7GY      -0.228000
      2 C7          -2.6230     1.3410    -0.8140 ca         1 7GY      -0.079000
      3 C6          -3.9990     1.4700    -0.8730 ca         1 7GY      -0.169000
      4 C9          -0.5250     0.1290    -0.2960 cp         1 7GY       0.016000
      5 C13          1.5610     0.9660     0.4660 ca         1 7GY      -0.053200
      6 C8          -2.0060     0.1830    -0.3410 cp         1 7GY      -0.084000
      7 C1          -1.7810    -1.8850     2.1580 c3         1 7GY      -0.086100
      8 C3          -2.8120    -0.8780     0.0970 ca         1 7GY      -0.012300
      9 C5          -4.7980     0.4140    -0.4450 ca         1 7GY       0.146100
     10 C10          0.1810    -0.8310    -1.0650 ca         1 7GY      -0.156000
     11 C11          1.5520    -0.9080    -1.0630 ca         1 7GY      -0.042000
     12 C12          2.2680     0.0060    -0.2750 ca         1 7GY      -0.184900
     13 C14          0.1660     1.0440     0.4710 ca         1 7GY      -0.146000
     14 N15          2.5000     1.7030     1.1110 na         1 7GY       0.006900
     15 N16          3.7290     1.2980     0.8480 nc         1 7GY      -0.516100
     16 C17          3.6330     0.2810     0.0200 cd         1 7GY       0.294900
     17 O19          4.7020    -1.3950    -1.2280 o          1 7GY      -0.607100
     18 N20          6.0050     0.0390    -0.0580 nt         1 7GY      -0.662000
     19 O21         -6.1350     0.5620    -0.5130 oh         1 7GY      -0.493100
     20 H1          -4.8160    -1.5660     0.3830 ha         1 7GY       0.130000
     21 H2          -2.0080     2.1630    -1.1590 ha         1 7GY       0.135000
     22 H3          -4.4510     2.3780    -1.2520 ha         1 7GY       0.148000
     23 H4          -1.4110    -2.8090     2.6030 hc         1 7GY       0.036367
     24 H5          -0.9780    -1.1490     2.2050 hc         1 7GY       0.036367
     25 H6          -2.6050    -1.5230     2.7750 hc         1 7GY       0.036367
     26 H7          -1.4000    -2.5050     0.1340 hc         1 7GY       0.049200
     27 H8          -2.9970    -2.9080     0.7090 hc         1 7GY       0.049200
     28 H9          -0.3850    -1.5130    -1.6870 ha         1 7GY       0.139000
     29 H10          2.0650    -1.6490    -1.6590 ha         1 7GY       0.162000
     30 H11         -0.3530     1.7860     1.0650 ha         1 7GY       0.141000
     31 H12          2.3540     2.4820     1.7350 hn         1 7GY       0.328700
     32 H13          6.0660     0.8430     0.5450 hn         1 7GY       0.323000
     33 H14          6.8620    -0.4030    -0.3460 hn         1 7GY       0.323000
     34 H15         -6.5770    -0.2260    -0.1760 ho         1 7GY       0.426000
     35 C18          4.8260    -0.4330    -0.4800 c          1 7GY       0.626800
     36 C2          -2.2380    -2.1240     0.7200 c3         1 7GY      -0.037100
@<TRIPOS>BOND
     1     1     8 ar  
     2     1     9 ar  
     3     1    20 1   
     4     2     3 ar  
     5     2     6 ar  
     6     2    21 1   
     7     3     9 ar  
     8     3    22 1   
     9     4     6 1   
    10     4    10 ar  
    11     4    13 ar  
    12     5    12 ar  
    13     5    13 ar  
    14     5    14 1   
    15     6     8 ar  
    16     7    23 1   
    17     7    24 1   
    18     7    25 1   
    19     7    36 1   
    20     8    36 1   
    21     9    19 1   
    22    10    11 ar  
    23    10    28 1   
    24    11    12 ar  
    25    11    29 1   
    26    12    16 1   
    27    13    30 1   
    28    14    15 1   
    29    14    31 1   
    30    15    16 2   
    31    16    35 1   
    32    17    35 2   
    33    18    32 1   
    34    18    33 1   
    35    18    35 1   
    36    19    34 1   
    37    26    36 1   
    38    27    36 1   
@<TRIPOS>SUBSTRUCTURE
     1 7GY         1 TEMP              0 ****  ****    0 ROOT
