@<TRIPOS>MOLECULE
7GY
   36    38     1     0     0
SMALL
No Charge or Current Charge


@<TRIPOS>ATOM
      1 C4          -4.2500    -0.7440     0.0480 ca         1 7GY      -0.210000
      2 C7          -2.6470     1.3560    -0.8850 ca         1 7GY      -0.061000
      3 C6          -4.0450     1.4580    -0.9540 ca         1 7GY      -0.151000
      4 C9          -0.5350     0.1470    -0.3070 cp         1 7GY       0.016000
      5 C13          1.5830     0.9870     0.5250 ca         1 7GY      -0.053200
      6 C8          -2.0240     0.2000    -0.3580 cp         1 7GY      -0.084000
      7 C1          -1.7800    -1.8890     2.2030 c3         1 7GY      -0.086100
      8 C3          -2.8450    -0.8620     0.1220 ca         1 7GY      -0.012300
      9 C5          -4.8440     0.4070    -0.4890 ca         1 7GY       0.146100
     10 C10          0.1970    -0.7900    -1.0930 ca         1 7GY      -0.138000
     11 C11          1.6070    -0.8380    -1.0560 ca         1 7GY      -0.024000
     12 C12          2.2640     0.0790    -0.2210 ca         1 7GY      -0.184900
     13 C14          0.1850     1.0600     0.5090 ca         1 7GY      -0.128000
     14 N15          2.4930     1.7500     1.2310 na         1 7GY      -0.043400
     15 N16          3.8060     1.3350     0.9440 nc         1 7GY      -0.516100
     16 C17          3.6710     0.3170     0.0610 cd         1 7GY       0.294900
     17 O19          4.7360    -1.3730    -1.3370 o          1 7GY      -0.607100
     18 N20          6.0680    -0.0590    -0.1330 nt         1 7GY      -0.595000
     19 O21         -6.2000     0.5090    -0.5550 oh         1 7GY      -0.532100
     20 H1          -4.8770    -1.5500     0.4200 ha         1 7GY       0.112000
     21 H2          -2.0340     2.1770    -1.2490 ha         1 7GY       0.117000
     22 H3          -4.5070     2.3510    -1.3660 ha         1 7GY       0.130000
     23 H4          -1.3940    -2.8200     2.6350 hc         1 7GY       0.036367
     24 H5          -0.9800    -1.1410     2.2320 hc         1 7GY       0.036367
     25 H6          -2.6070    -1.5360     2.8320 hc         1 7GY       0.036367
     26 H7          -1.4300    -2.5160     0.1630 hc         1 7GY       0.049200
     27 H8          -3.0110    -2.9260     0.7710 hc         1 7GY       0.049200
     28 H9          -0.3410    -1.4800    -1.7390 ha         1 7GY       0.121000
     29 H10          2.1540    -1.5590    -1.6590 ha         1 7GY       0.144000
     30 H11         -0.3420     1.7940     1.1130 ha         1 7GY       0.123000
     31 H12          2.2850     2.5120     1.8750 hn         1 7GY       0.379000
     32 H13          6.1550     0.7020     0.5270 hn         1 7GY       0.323000
     33 H14          6.8840    -0.5290    -0.4930 hn         1 7GY       0.323000
     34 H15         -6.5890    -0.3130    -0.1870 ho         1 7GY       0.465000
     35 C18          4.8310    -0.4510    -0.5380 c          1 7GY       0.559800
     36 C2          -2.2620    -2.1250     0.7590 c3         1 7GY      -0.037100
@<TRIPOS>BOND
     1     1     8 ar  
     2     1     9 ar  
     3     1    20 1   
     4     2     3 ar  
     5     2     6 ar  
     6     2    21 1   
     7     3     9 ar  
     8     3    22 1   
     9     4     6 1   
    10     4    10 ar  
    11     4    13 ar  
    12     5    12 ar  
    13     5    13 ar  
    14     5    14 1   
    15     6     8 ar  
    16     7    23 1   
    17     7    24 1   
    18     7    25 1   
    19     7    36 1   
    20     8    36 1   
    21     9    19 1   
    22    10    11 ar  
    23    10    28 1   
    24    11    12 ar  
    25    11    29 1   
    26    12    16 1   
    27    13    30 1   
    28    14    15 1   
    29    14    31 1   
    30    15    16 2   
    31    16    35 1   
    32    17    35 2   
    33    18    32 1   
    34    18    33 1   
    35    18    35 1   
    36    19    34 1   
    37    26    36 1   
    38    27    36 1   
@<TRIPOS>SUBSTRUCTURE
     1 7GY         1 TEMP              0 ****  ****    0 ROOT
