@<TRIPOS>MOLECULE
7GZ
   45    49     1     0     0
SMALL
No Charge or Current Charge


@<TRIPOS>ATOM
      1 C4           5.7860     0.7810     0.4660 ca         1 7GZ      -0.153000
      2 C7           4.0790     0.0630    -1.6300 ca         1 7GZ      -0.055000
      3 C6           5.4500     0.2340    -1.8740 ca         1 7GZ      -0.209000
      4 C9           2.0690     0.0390    -0.1400 cp         1 7GZ       0.016000
      5 C13          0.1860    -1.1120     0.8600 ca         1 7GZ      -0.047200
      6 C20         -5.4850    -0.0570    -0.0450 ca         1 7GZ      -0.076200
      7 C21         -6.8740    -0.1860     0.0690 ca         1 7GZ      -0.115000
      8 C8           3.5350     0.2380    -0.3340 cp         1 7GZ      -0.081000
      9 C18         -3.2760    -0.2290     0.1000 cc         1 7GZ       0.411500
     10 C1           4.3460    -0.2210     3.1490 c3         1 7GZ      -0.085100
     11 C3           4.4110     0.6110     0.7290 ca         1 7GZ      -0.018300
     12 C5           6.3020     0.5910    -0.8220 ca         1 7GZ       0.146100
     13 C10          1.1340     0.8440    -0.8540 ca         1 7GZ      -0.144000
     14 C11         -0.2590     0.6720    -0.6980 ca         1 7GZ      -0.020000
     15 C12         -0.6960    -0.3310     0.1830 ca         1 7GZ      -0.191900
     16 C14          1.5720    -0.9690     0.7280 ca         1 7GZ      -0.127000
     17 N15         -0.5450    -1.9920     1.6230 na         1 7GZ      -0.046400
     18 N16         -1.9240    -1.8060     1.4660 nd         1 7GZ      -0.530100
     19 C17         -2.0190    -0.7860     0.5820 cc         1 7GZ       0.330600
     20 N19         -4.4860    -0.7550     0.5590 na         1 7GZ      -0.297600
     21 C22         -7.6720     0.6940    -0.6930 ca         1 7GZ      -0.093000
     22 C23         -7.0650     1.6600    -1.5320 ca         1 7GZ      -0.135000
     23 C24         -5.6570     1.7540    -1.6160 ca         1 7GZ      -0.049000
     24 C25         -4.8860     0.8690    -0.8490 ca         1 7GZ       0.068400
     25 N26         -3.4980     0.7820    -0.7760 nd         1 7GZ      -0.571100
     26 O27          7.6340     0.7620    -1.0490 oh         1 7GZ      -0.533100
     27 H1           6.4590     1.0710     1.2690 ha         1 7GZ       0.128000
     28 H2           3.4230    -0.2170    -2.4520 ha         1 7GZ       0.118000
     29 H3           5.8400     0.0880    -2.8780 ha         1 7GZ       0.116000
     30 H4          -7.3240    -0.9330     0.7180 ha         1 7GZ       0.117000
     31 H5           3.9610    -1.1990     2.8390 hc         1 7GZ       0.034033
     32 H6           5.4380    -0.2860     3.2140 hc         1 7GZ       0.034033
     33 H7           3.9570     0.0000     4.1500 hc         1 7GZ       0.034033
     34 H8           2.8330     0.9940     2.1910 hc         1 7GZ       0.053700
     35 H9           4.3260     1.8370     2.5030 hc         1 7GZ       0.053700
     36 H10          1.5000     1.6140    -1.5290 ha         1 7GZ       0.120000
     37 H11         -0.9570     1.2990    -1.2480 ha         1 7GZ       0.145000
     38 H12          2.2520    -1.6190     1.2710 ha         1 7GZ       0.124000
     39 H13         -0.1690    -2.7090     2.2430 hn         1 7GZ       0.379000
     40 H14         -4.5770    -1.5170     1.2200 hn         1 7GZ       0.370000
     41 H15         -8.7560     0.6300    -0.6350 ha         1 7GZ       0.112000
     42 H16         -7.6860     2.3350    -2.1170 ha         1 7GZ       0.113000
     43 H17         -5.1820     2.4920    -2.2570 ha         1 7GZ       0.127000
     44 H19          7.8090     0.5900    -1.9990 ho         1 7GZ       0.465000
     45 C2           3.9220     0.8790     2.1540 c3         1 7GZ      -0.039100
@<TRIPOS>BOND
     1     1    11 ar  
     2     1    12 ar  
     3     1    27 1   
     4     2     3 ar  
     5     2     8 ar  
     6     2    28 1   
     7     3    12 ar  
     8     3    29 1   
     9     4     8 1   
    10     4    13 ar  
    11     4    16 ar  
    12     5    15 ar  
    13     5    16 ar  
    14     5    17 1   
    15     6     7 ar  
    16     6    20 1   
    17     6    24 ar  
    18     7    21 ar  
    19     7    30 1   
    20     8    11 ar  
    21     9    19 1   
    22     9    20 1   
    23     9    25 2   
    24    10    31 1   
    25    10    32 1   
    26    10    33 1   
    27    10    45 1   
    28    11    45 1   
    29    12    26 1   
    30    13    14 ar  
    31    13    36 1   
    32    14    15 ar  
    33    14    37 1   
    34    15    19 1   
    35    16    38 1   
    36    17    18 1   
    37    17    39 1   
    38    18    19 2   
    39    20    40 1   
    40    21    22 ar  
    41    21    41 1   
    42    22    23 ar  
    43    22    42 1   
    44    23    24 ar  
    45    23    43 1   
    46    24    25 1   
    47    26    44 1   
    48    34    45 1   
    49    35    45 1   
@<TRIPOS>SUBSTRUCTURE
     1 7GZ         1 TEMP              0 ****  ****    0 ROOT
