@<TRIPOS>MOLECULE
7GZ
   45    49     1     0     0
SMALL
bcc


@<TRIPOS>ATOM
      1 C4           5.7660     0.7070     0.4270 ca         1 7GZ      -0.171000
      2 C7           3.9710     0.1740    -1.5810 ca         1 7GZ      -0.073000
      3 C6           5.3120     0.3060    -1.8950 ca         1 7GZ      -0.227000
      4 C9           2.0430     0.1230    -0.0480 cp         1 7GZ       0.016000
      5 C13          0.1680    -0.9330     0.9600 ca         1 7GZ      -0.047200
      6 C20         -5.4930    -0.1040    -0.0320 ca         1 7GZ      -0.076200
      7 C21         -6.8740    -0.2500     0.0320 ca         1 7GZ      -0.133000
      8 C8           3.4980     0.2880    -0.2730 cp         1 7GZ      -0.081000
      9 C18         -3.3070    -0.1820     0.1510 cc         1 7GZ       0.411500
     10 C1           4.4250    -0.4300     3.0750 c3         1 7GZ      -0.085100
     11 C3           4.4180     0.5680     0.7490 ca         1 7GZ      -0.018300
     12 C5           6.2230     0.5730    -0.8770 ca         1 7GZ       0.146100
     13 C10          1.1430     0.9120    -0.8100 ca         1 7GZ      -0.162000
     14 C11         -0.2210     0.7860    -0.7000 ca         1 7GZ      -0.038000
     15 C12         -0.7250    -0.1580     0.2040 ca         1 7GZ      -0.191900
     16 C14          1.5550    -0.8130     0.8440 ca         1 7GZ      -0.145000
     17 N15         -0.6000    -1.7490     1.7230 na         1 7GZ       0.003900
     18 N16         -1.8950    -1.5640     1.5200 nd         1 7GZ      -0.530100
     19 C17         -2.0090    -0.6170     0.6140 cc         1 7GZ       0.330600
     20 N19         -4.4620    -0.7300     0.6130 na         1 7GZ      -0.247300
     21 C22         -7.6230     0.5730    -0.7920 ca         1 7GZ      -0.111000
     22 C23         -7.0180     1.5080    -1.6460 ca         1 7GZ      -0.153000
     23 C24         -5.6430     1.6480    -1.7030 ca         1 7GZ      -0.067000
     24 C25         -4.8690     0.8280    -0.8820 ca         1 7GZ       0.068400
     25 N26         -3.5060     0.7530    -0.7410 nd         1 7GZ      -0.571100
     26 O27          7.5450     0.7180    -1.1020 oh         1 7GZ      -0.494100
     27 H1           6.4780     0.9370     1.2130 ha         1 7GZ       0.146000
     28 H2           3.2700    -0.0370    -2.3800 ha         1 7GZ       0.136000
     29 H3           5.6410     0.2010    -2.9220 ha         1 7GZ       0.134000
     30 H4          -7.3440    -0.9700     0.6880 ha         1 7GZ       0.135000
     31 H5           3.9610    -1.3580     2.7400 hc         1 7GZ       0.034033
     32 H6           5.5050    -0.5840     3.0680 hc         1 7GZ       0.034033
     33 H7           4.1210    -0.2590     4.1080 hc         1 7GZ       0.034033
     34 H8           2.9560     0.9340     2.2840 hc         1 7GZ       0.053700
     35 H9           4.5220     1.6510     2.5730 hc         1 7GZ       0.053700
     36 H10          1.5540     1.6420    -1.4960 ha         1 7GZ       0.138000
     37 H11         -0.8880     1.3970    -1.2910 ha         1 7GZ       0.163000
     38 H12          2.2180    -1.4490     1.4140 ha         1 7GZ       0.142000
     39 H13         -0.2940    -2.4400     2.3900 hn         1 7GZ       0.328700
     40 H14         -4.5320    -1.4660     1.2980 hn         1 7GZ       0.319700
     41 H15         -8.7030     0.4930    -0.7770 ha         1 7GZ       0.130000
     42 H16         -7.6440     2.1290    -2.2730 ha         1 7GZ       0.131000
     43 H17         -5.1780     2.3690    -2.3620 ha         1 7GZ       0.145000
     44 H19          7.7370     0.6200    -2.0410 ho         1 7GZ       0.426000
     45 C2           4.0280     0.7540     2.1940 c3         1 7GZ      -0.039100
@<TRIPOS>BOND
     1     1    11 ar  
     2     1    12 ar  
     3     1    27 1   
     4     2     3 ar  
     5     2     8 ar  
     6     2    28 1   
     7     3    12 ar  
     8     3    29 1   
     9     4     8 1   
    10     4    13 ar  
    11     4    16 ar  
    12     5    15 ar  
    13     5    16 ar  
    14     5    17 1   
    15     6     7 ar  
    16     6    20 1   
    17     6    24 ar  
    18     7    21 ar  
    19     7    30 1   
    20     8    11 ar  
    21     9    19 1   
    22     9    20 1   
    23     9    25 2   
    24    10    31 1   
    25    10    32 1   
    26    10    33 1   
    27    10    45 1   
    28    11    45 1   
    29    12    26 1   
    30    13    14 ar  
    31    13    36 1   
    32    14    15 ar  
    33    14    37 1   
    34    15    19 1   
    35    16    38 1   
    36    17    18 1   
    37    17    39 1   
    38    18    19 2   
    39    20    40 1   
    40    21    22 ar  
    41    21    41 1   
    42    22    23 ar  
    43    22    42 1   
    44    23    24 ar  
    45    23    43 1   
    46    24    25 1   
    47    26    44 1   
    48    34    45 1   
    49    35    45 1   
@<TRIPOS>SUBSTRUCTURE
     1 7GZ         1 TEMP              0 ****  ****    0 ROOT
