@<TRIPOS>MOLECULE
7H0
   40    42     1     0     0
SMALL
No Charge or Current Charge


@<TRIPOS>ATOM
      1 C4          -4.2170    -0.9370    -0.3590 c          1 7H0       0.648700
      2 C14          0.5160     0.7630     1.2810 cc         1 7H0       0.177400
      3 C6          -3.4880     0.2770     0.1560 cc         1 7H0      -0.146600
      4 C11         -1.3760    -0.8650     0.9670 c          1 7H0       0.537000
      5 C7          -4.0280     1.5640     0.1500 cd         1 7H0      -0.192300
      6 C9          -1.5860     1.5090     0.7260 cd         1 7H0      -0.011000
      7 C13          0.0200    -0.5260     1.2760 cd         1 7H0      -0.362200
      8 N3          -5.5910    -0.8490    -0.3070 ns         1 7H0      -0.491900
      9 C2          -6.5210    -1.8960    -0.7370 c3         1 7H0       0.105000
     10 O5          -3.6800    -1.9310    -0.8240 o          1 7H0      -0.560100
     11 S8          -2.7970     2.7790     0.5580 ss         1 7H0       0.233000
     12 N10         -2.1470     0.2590     0.5710 n          1 7H0       0.002200
     13 O12         -1.7870    -2.0090     1.0980 o          1 7H0      -0.505000
     14 N15         -0.3350     1.8250     1.0420 nc         1 7H0      -0.339600
     15 N17          2.9010     0.4970     0.6450 na         1 7H0       0.152800
     16 C18          3.0810     0.8530    -0.6870 cc         1 7H0       0.057000
     17 C19          4.0470     0.0090    -1.1390 cd         1 7H0      -0.164000
     18 C20          4.4120    -0.8240    -0.0550 cd         1 7H0       0.139300
     19 N21          3.7240    -0.5440     1.0450 nc         1 7H0      -0.455800
     20 C22          5.4560    -1.9300    -0.0770 c3         1 7H0       0.294700
     21 F23          6.4490    -1.7050     0.8150 f          1 7H0      -0.106000
     22 F24          4.9200    -3.1360     0.2220 f          1 7H0      -0.106000
     23 F25          6.0430    -2.0540    -1.2900 f          1 7H0      -0.106000
     24 Cl2          2.2420     2.1010    -1.5600 cl         1 7H0      -0.116000
     25 C27         -5.3800     2.0770    -0.3020 c3         1 7H0      -0.025800
     26 H1           0.6460    -1.3750     1.5240 ha         1 7H0       0.221000
     27 H3          -5.9670    -0.0120     0.1160 hn         1 7H0       0.319500
     28 H4          -7.3660    -3.7740    -0.0340 hc         1 7H0       0.043700
     29 H5          -5.6850    -3.5090     0.4760 hc         1 7H0       0.043700
     30 H6          -7.0060    -2.6150     1.2640 hc         1 7H0       0.043700
     31 H7          -7.5060    -1.4410    -0.9060 h1         1 7H0       0.056700
     32 H8          -6.1770    -2.3170    -1.6910 h1         1 7H0       0.056700
     33 H9           2.0940     2.1860     1.5790 h1         1 7H0       0.091200
     34 H10          2.1880     0.7480     2.6050 h1         1 7H0       0.091200
     35 H11          4.4570    -0.0160    -2.1430 ha         1 7H0       0.169000
     36 H12         -6.1690     1.8210     0.4150 hc         1 7H0       0.059700
     37 H13         -5.3790     3.1700    -0.3940 hc         1 7H0       0.059700
     38 H14         -5.6560     1.6790    -1.2860 hc         1 7H0       0.059700
     39 C16          1.9530     1.0990     1.5940 c3         1 7H0       0.133800
     40 C1          -6.6500    -3.0170     0.3080 c3         1 7H0      -0.112100
@<TRIPOS>BOND
     1     1     3 1   
     2     1     8 1   
     3     1    10 2   
     4     2     7 2   
     5     2    14 1   
     6     2    39 1   
     7     3     5 2   
     8     3    12 1   
     9     4     7 1   
    10     4    12 1   
    11     4    13 2   
    12     5    11 1   
    13     5    25 1   
    14     6    11 1   
    15     6    12 1   
    16     6    14 2   
    17     7    26 1   
    18     8     9 1   
    19     8    27 1   
    20     9    31 1   
    21     9    32 1   
    22     9    40 1   
    23    15    16 1   
    24    15    19 1   
    25    15    39 1   
    26    16    17 2   
    27    16    24 1   
    28    17    18 1   
    29    17    35 1   
    30    18    19 2   
    31    18    20 1   
    32    20    21 1   
    33    20    22 1   
    34    20    23 1   
    35    25    36 1   
    36    25    37 1   
    37    25    38 1   
    38    28    40 1   
    39    29    40 1   
    40    30    40 1   
    41    33    39 1   
    42    34    39 1   
@<TRIPOS>SUBSTRUCTURE
     1 7H0         1 TEMP              0 ****  ****    0 ROOT
