@<TRIPOS>MOLECULE
7H0
   40    42     1     0     0
SMALL
abcg2


@<TRIPOS>ATOM
      1 C4          -4.1490    -1.4450    -0.2990 c          1 7H0       0.648700
      2 C14          0.4510    -0.1140     1.5250 cc         1 7H0       0.177400
      3 C6          -3.1340    -0.3370    -0.3620 cc         1 7H0      -0.146600
      4 C11         -1.6810    -1.2760     1.4250 c          1 7H0       0.537000
      5 C7          -3.1830     0.6830    -1.2340 cd         1 7H0      -0.192300
      6 C9          -1.0540     0.5960     0.0290 cd         1 7H0      -0.011000
      7 C13         -0.3720    -1.1070     1.9690 cd         1 7H0      -0.362200
      8 N3          -5.2880    -1.1110     0.3070 ns         1 7H0      -0.491900
      9 C2          -6.4040    -2.0300     0.4370 c3         1 7H0       0.105000
     10 O5          -3.9390    -2.5080    -0.8560 o          1 7H0      -0.560100
     11 S8          -1.7140     1.6220    -1.1910 ss         1 7H0       0.233000
     12 N10         -1.9430    -0.3820     0.3610 n          1 7H0       0.002200
     13 O12         -2.5370    -2.0670     1.7730 o          1 7H0      -0.505000
     14 N15          0.1130     0.7640     0.5590 nc         1 7H0      -0.339600
     15 N17          2.7940     0.4020     1.1330 na         1 7H0       0.152800
     16 C18          3.1850     1.6090     0.6740 cc         1 7H0       0.057000
     17 C19          4.0510     1.4050    -0.3670 cd         1 7H0      -0.164000
     18 C20          4.0990     0.0070    -0.4630 cd         1 7H0       0.139300
     19 N21          3.3390    -0.5830     0.4340 nc         1 7H0      -0.455800
     20 C22          4.9000    -0.7930    -1.4250 c3         1 7H0       0.294700
     21 F23          6.2130    -0.5780    -1.2670 f          1 7H0      -0.106000
     22 F24          4.6860    -2.0990    -1.2860 f          1 7H0      -0.106000
     23 F25          4.6090    -0.4630    -2.6900 f          1 7H0      -0.106000
     24 CL2          2.6450     3.0640     1.3550 cl         1 7H0      -0.116000
     25 C27         -4.2590     1.0420    -2.1950 c3         1 7H0      -0.025800
     26 H1          -0.0620    -1.7800     2.7560 ha         1 7H0       0.221000
     27 H3          -5.3350    -0.2270     0.7900 hn         1 7H0       0.319500
     28 H4          -8.4180    -2.0320     1.1790 hc         1 7H0       0.043700
     29 H5          -7.3310    -1.0020     2.1050 hc         1 7H0       0.043700
     30 H6          -7.9120    -0.4780     0.5190 hc         1 7H0       0.043700
     31 H7          -6.6880    -2.3930    -0.5520 h1         1 7H0       0.056700
     32 H8          -6.0980    -2.9010     1.0220 h1         1 7H0       0.056700
     33 H9           1.7640     0.9160     2.8560 h1         1 7H0       0.091200
     34 H10          2.1350    -0.7930     2.6760 h1         1 7H0       0.091200
     35 H11          4.5630     2.1470    -0.9570 ha         1 7H0       0.169000
     36 H12         -4.6490     2.0380    -1.9840 hc         1 7H0       0.059700
     37 H13         -3.8820     1.0410    -3.2170 hc         1 7H0       0.059700
     38 H14         -5.0860     0.3390    -2.1370 hc         1 7H0       0.059700
     39 C16          1.8080     0.0950     2.1400 c3         1 7H0       0.133800
     40 C1          -7.5810    -1.3400     1.0990 c3         1 7H0      -0.112100
@<TRIPOS>BOND
     1     1     3 1   
     2     1     8 1   
     3     1    10 2   
     4     2     7 2   
     5     2    14 1   
     6     2    39 1   
     7     3     5 2   
     8     3    12 1   
     9     4     7 1   
    10     4    12 1   
    11     4    13 2   
    12     5    11 1   
    13     5    25 1   
    14     6    11 1   
    15     6    12 1   
    16     6    14 2   
    17     7    26 1   
    18     8     9 1   
    19     8    27 1   
    20     9    31 1   
    21     9    32 1   
    22     9    40 1   
    23    15    16 1   
    24    15    19 1   
    25    15    39 1   
    26    16    17 2   
    27    16    24 1   
    28    17    18 1   
    29    17    35 1   
    30    18    19 2   
    31    18    20 1   
    32    20    21 1   
    33    20    22 1   
    34    20    23 1   
    35    25    36 1   
    36    25    37 1   
    37    25    38 1   
    38    28    40 1   
    39    29    40 1   
    40    30    40 1   
    41    33    39 1   
    42    34    39 1   
@<TRIPOS>SUBSTRUCTURE
     1 7H0         1 TEMP              0 ****  ****    0 ROOT
