@<TRIPOS>MOLECULE
7H1
   39    39     1     0     0
SMALL
bcc


@<TRIPOS>ATOM
      1 O1          20.5210   -33.4350     7.3850 o          1 7H1      -0.505100
      2 C           20.3530   -34.6270     7.2640 c          1 7H1       0.638100
      3 N           19.5110   -35.3870     7.9600 ns         1 7H1      -0.434400
      4 O           18.6630   -34.7990     8.8400 oh         1 7H1      -0.362100
      5 C1          21.1730   -35.3950     6.2030 c3         1 7H1       0.309600
      6 F           21.1490   -36.7270     6.4200 f          1 7H1      -0.195800
      7 F1          22.4450   -34.9800     6.2800 f          1 7H1      -0.195800
      8 C2          20.6230   -35.1110     4.7820 c3         1 7H1       0.351600
      9 F2          19.2870   -35.2590     4.8350 f          1 7H1      -0.185300
     10 F3          20.8990   -33.8340     4.4780 f          1 7H1      -0.185300
     11 C3          21.1720   -36.0360     3.6550 c3         1 7H1       0.355600
     12 F4          20.5780   -37.2330     3.7720 f          1 7H1      -0.183800
     13 F5          22.4940   -36.1930     3.8250 f          1 7H1      -0.183800
     14 C4          20.9330   -35.4870     2.2130 c3         1 7H1       0.356600
     15 F6          21.8130   -34.5000     1.9930 f          1 7H1      -0.183300
     16 F7          19.6910   -34.9850     2.1410 f          1 7H1      -0.183300
     17 C5          21.0870   -36.5570     1.0910 c3         1 7H1       0.349600
     18 F8          19.9930   -37.3390     1.1000 f          1 7H1      -0.187300
     19 F9          22.1590   -37.3200     1.3510 f          1 7H1      -0.187300
     20 C6          21.2390   -35.9950    -0.3470 c3         1 7H1       0.306600
     21 F10         22.4570   -35.4560    -0.4870 f          1 7H1      -0.194800
     22 F11         20.3220   -35.0210    -0.5320 f          1 7H1      -0.194800
     23 C7          21.0900   -37.1270    -1.3930 c          1 7H1       0.642100
     24 O2          22.0330   -37.8680    -1.5600 o          1 7H1      -0.520100
     25 N1          19.8970   -37.1670    -1.9990 ns         1 7H1      -0.445100
     26 C8          19.4450   -38.0680    -2.9790 ca         1 7H1       0.058600
     27 C9          18.1490   -37.8590    -3.4520 ca         1 7H1      -0.156500
     28 C10         17.6130   -38.6940    -4.4160 ca         1 7H1      -0.101500
     29 C11         18.3600   -39.7500    -4.9230 ca         1 7H1      -0.143000
     30 C12         19.6470   -39.9540    -4.4500 ca         1 7H1      -0.101500
     31 C13         20.2000   -39.1250    -3.4820 ca         1 7H1      -0.156500
     32 H1          19.3660   -36.3760     7.8100 hn         1 7H1       0.365500
     33 H2          19.0950   -34.8390     9.7050 ho         1 7H1       0.410000
     34 H3          19.2260   -36.4540    -1.7540 hn         1 7H1       0.338500
     35 H4          17.5560   -37.0410    -3.0600 ha         1 7H1       0.148500
     36 H5          16.6060   -38.5170    -4.7710 ha         1 7H1       0.136000
     37 H6          17.9420   -40.4040    -5.6770 ha         1 7H1       0.137000
     38 H7          20.2420   -40.7710    -4.8370 ha         1 7H1       0.136000
     39 H8          21.2030   -39.3130    -3.1380 ha         1 7H1       0.148500
@<TRIPOS>BOND
     1     1     2 2   
     2     2     3 1   
     3     2     5 1   
     4     3     4 1   
     5     3    32 1   
     6     4    33 1   
     7     5     6 1   
     8     5     7 1   
     9     5     8 1   
    10     8     9 1   
    11     8    10 1   
    12     8    11 1   
    13    11    12 1   
    14    11    13 1   
    15    11    14 1   
    16    14    15 1   
    17    14    16 1   
    18    14    17 1   
    19    17    18 1   
    20    17    19 1   
    21    17    20 1   
    22    20    21 1   
    23    20    22 1   
    24    20    23 1   
    25    23    24 2   
    26    23    25 1   
    27    25    26 1   
    28    25    34 1   
    29    26    27 ar  
    30    26    31 ar  
    31    27    28 ar  
    32    27    35 1   
    33    28    29 ar  
    34    28    36 1   
    35    29    30 ar  
    36    29    37 1   
    37    30    31 ar  
    38    30    38 1   
    39    31    39 1   
@<TRIPOS>SUBSTRUCTURE
     1 7H1         1 TEMP              0 ****  ****    0 ROOT
