@<TRIPOS>MOLECULE
7H1
   39    39     1     0     0
SMALL
No Charge or Current Charge


@<TRIPOS>ATOM
      1 O1          20.7760   -33.4520     7.6420 o          1 7H1      -0.505100
      2 C           20.4930   -34.6210     7.4040 c          1 7H1       0.571100
      3 N           19.5240   -35.3000     8.1430 ns         1 7H1      -0.367400
      4 O           18.6140   -34.5790     9.0120 oh         1 7H1      -0.401100
      5 C1          21.2210   -35.4500     6.3080 c3         1 7H1       0.067000
      6 F           21.0510   -36.7820     6.5120 f          1 7H1      -0.074500
      7 F1          22.5590   -35.2400     6.4010 f          1 7H1      -0.074500
      8 C2          20.7300   -35.0620     4.8700 c3         1 7H1       0.109000
      9 F2          19.3740   -35.0260     4.8860 f          1 7H1      -0.064000
     10 F3          21.1090   -33.7850     4.6180 f          1 7H1      -0.064000
     11 C3          21.2020   -35.9980     3.6880 c3         1 7H1       0.113000
     12 F4          20.5930   -37.2020     3.8210 f          1 7H1      -0.062500
     13 F5          22.5240   -36.2570     3.8330 f          1 7H1      -0.062500
     14 C4          20.9510   -35.4530     2.2260 c3         1 7H1       0.114000
     15 F6          21.7660   -34.3910     2.0130 f          1 7H1      -0.062000
     16 F7          19.6940   -34.9510     2.1510 f          1 7H1      -0.062000
     17 C5          21.1480   -36.4930     1.0530 c3         1 7H1       0.107000
     18 F8          20.1540   -37.4130     1.1110 f          1 7H1      -0.066000
     19 F9          22.2880   -37.1980     1.2560 f          1 7H1      -0.066000
     20 C6          21.1810   -35.9070    -0.4030 c3         1 7H1       0.064000
     21 F10         22.3160   -35.1830    -0.5730 f          1 7H1      -0.073500
     22 F11         20.1630   -35.0240    -0.5700 f          1 7H1      -0.073500
     23 C7          21.1230   -37.0330    -1.4720 c          1 7H1       0.575100
     24 O2          22.1170   -37.6860    -1.7760 o          1 7H1      -0.520100
     25 N1          19.8800   -37.2020    -2.0760 ns         1 7H1      -0.119000
     26 C8          19.4080   -38.1130    -3.0620 ca         1 7H1      -0.034000
     27 C9          18.1200   -37.8960    -3.5880 ca         1 7H1      -0.138500
     28 C10         17.5870   -38.7590    -4.5620 ca         1 7H1      -0.083500
     29 C11         18.3390   -39.8530    -5.0160 ca         1 7H1      -0.125000
     30 C12         19.6210   -40.0850    -4.4940 ca         1 7H1      -0.083500
     31 C13         20.1550   -39.2220    -3.5200 ca         1 7H1      -0.138500
     32 H1          19.2210   -36.2260     7.8410 hn         1 7H1       0.365500
     33 H2          18.6660   -35.0720     9.8650 ho         1 7H1       0.449000
     34 H3          19.1710   -36.5590    -1.7440 hn         1 7H1       0.172000
     35 H4          17.5250   -37.0510    -3.2450 ha         1 7H1       0.130500
     36 H5          16.5920   -38.5780    -4.9630 ha         1 7H1       0.118000
     37 H6          17.9280   -40.5220    -5.7690 ha         1 7H1       0.119000
     38 H7          20.2020   -40.9370    -4.8420 ha         1 7H1       0.118000
     39 H8          21.1450   -39.4410    -3.1310 ha         1 7H1       0.130500
@<TRIPOS>BOND
     1     1     2 2   
     2     2     3 1   
     3     2     5 1   
     4     3     4 1   
     5     3    32 1   
     6     4    33 1   
     7     5     6 1   
     8     5     7 1   
     9     5     8 1   
    10     8     9 1   
    11     8    10 1   
    12     8    11 1   
    13    11    12 1   
    14    11    13 1   
    15    11    14 1   
    16    14    15 1   
    17    14    16 1   
    18    14    17 1   
    19    17    18 1   
    20    17    19 1   
    21    17    20 1   
    22    20    21 1   
    23    20    22 1   
    24    20    23 1   
    25    23    24 2   
    26    23    25 1   
    27    25    26 1   
    28    25    34 1   
    29    26    27 ar  
    30    26    31 ar  
    31    27    28 ar  
    32    27    35 1   
    33    28    29 ar  
    34    28    36 1   
    35    29    30 ar  
    36    29    37 1   
    37    30    31 ar  
    38    30    38 1   
    39    31    39 1   
@<TRIPOS>SUBSTRUCTURE
     1 7H1         1 TEMP              0 ****  ****    0 ROOT
