@<TRIPOS>MOLECULE
7H2
   41    44     1     0     0
SMALL
No Charge or Current Charge


@<TRIPOS>ATOM
      1 C4           1.7120    -2.5260     0.9000 cc         1 7H2      -0.138000
      2 C14          3.7920     1.4530    -1.3300 cx         1 7H2      -0.073400
      3 C5           1.3030    -1.1640     1.0600 cc         1 7H2       0.102000
      4 C7          -0.3380     0.3690     1.7030 cd         1 7H2       0.196400
      5 C8           0.6470     1.3270     1.7580 cc         1 7H2      -0.409200
      6 C9           2.0400     1.1110     1.4050 c          1 7H2       0.528000
      7 C12          3.5440    -0.5520     0.3040 cc         1 7H2      -0.013300
      8 C13          4.3850     0.5280    -0.2840 cx         1 7H2      -0.046400
      9 C3           2.9970    -2.8890     0.5910 cd         1 7H2      -0.038000
     10 C2           3.9590    -1.8810     0.2610 cd         1 7H2      -0.127300
     11 N6           0.0310    -0.9360     1.3880 nd         1 7H2      -0.369600
     12 O10          2.8590     2.0120     1.5330 o          1 7H2      -0.516000
     13 N11          2.3130    -0.1940     0.9320 n          1 7H2       0.004200
     14 C15          4.8300     0.4360    -1.7340 cx         1 7H2      -0.093600
     15 C16          6.1590     0.8740    -2.1000 c1         1 7H2       0.326900
     16 N17          7.2390     1.2250    -2.3580 n1         1 7H2      -0.446000
     17 C18         -1.7870     0.6330     2.0340 c3         1 7H2       0.125800
     18 N19         -2.6950     0.5240     0.8820 na         1 7H2       0.162800
     19 C20         -2.6690     1.2970    -0.2760 cc         1 7H2       0.041000
     20 C21         -3.6960     0.8180    -1.0290 cd         1 7H2      -0.157000
     21 C22         -4.3030    -0.2250    -0.2900 cd         1 7H2       0.135300
     22 N23         -3.7100    -0.4190     0.8800 nc         1 7H2      -0.445800
     23 C24         -5.4960    -1.0630    -0.7240 c3         1 7H2       0.294700
     24 F25         -5.9470    -0.7130    -1.9510 f          1 7H2      -0.106333
     25 F26         -5.1930    -2.3810    -0.7820 f          1 7H2      -0.106333
     26 F27         -6.5400    -0.9340     0.1270 f          1 7H2      -0.106333
     27 Cl1         -1.5670     2.5860    -0.6550 cl         1 7H2      -0.122000
     28 H1           0.9700    -3.3000     1.0660 ha         1 7H2       0.159000
     29 H2           2.7660     1.2780    -1.6470 hc         1 7H2       0.090700
     30 H3           4.0790     2.5020    -1.2940 hc         1 7H2       0.090700
     31 H4           0.4180     2.3410     2.0640 ha         1 7H2       0.218000
     32 H6           5.0760     0.9710     0.4320 hc         1 7H2       0.123700
     33 H7           3.2600    -3.9410     0.5300 ha         1 7H2       0.133000
     34 H8           5.6140    -3.2800     0.2700 hc         1 7H2       0.052367
     35 H9           5.3880    -2.4430    -1.2690 hc         1 7H2       0.052367
     36 H10          6.1110    -1.5980     0.1160 hc         1 7H2       0.052367
     37 H11          4.4750    -0.4070    -2.3220 hc         1 7H2       0.110700
     38 H12         -2.1060    -0.0770     2.8060 h1         1 7H2       0.094700
     39 H13         -1.8870     1.6410     2.4520 h1         1 7H2       0.094700
     40 H14         -3.9910     1.1740    -2.0100 ha         1 7H2       0.169000
     41 C1           5.3400    -2.3190    -0.1810 c3         1 7H2      -0.041800
@<TRIPOS>BOND
     1     1     3 1   
     2     1     9 2   
     3     1    28 1   
     4     2     8 1   
     5     2    14 1   
     6     2    29 1   
     7     2    30 1   
     8     3    11 2   
     9     3    13 1   
    10     4     5 2   
    11     4    11 1   
    12     4    17 1   
    13     5     6 1   
    14     5    31 1   
    15     6    12 2   
    16     6    13 1   
    17     7     8 1   
    18     7    10 2   
    19     7    13 1   
    20     8    14 1   
    21     8    32 1   
    22     9    10 1   
    23     9    33 1   
    24    10    41 1   
    25    14    15 1   
    26    14    37 1   
    27    15    16 3   
    28    17    18 1   
    29    17    38 1   
    30    17    39 1   
    31    18    19 1   
    32    18    22 1   
    33    19    20 2   
    34    19    27 1   
    35    20    21 1   
    36    20    40 1   
    37    21    22 2   
    38    21    23 1   
    39    23    24 1   
    40    23    25 1   
    41    23    26 1   
    42    34    41 1   
    43    35    41 1   
    44    36    41 1   
@<TRIPOS>SUBSTRUCTURE
     1 7H2         1 TEMP              0 ****  ****    0 ROOT
