@<TRIPOS>MOLECULE
7H2
   41    44     1     0     0
SMALL
bcc


@<TRIPOS>ATOM
      1 C4           1.2110    -2.1960     0.1730 cc         1 7H2      -0.156000
      2 C14          4.3200     1.7090    -0.6120 cx         1 7H2      -0.073400
      3 C5           1.0380    -0.8560     0.5980 cc         1 7H2       0.152700
      4 C7          -0.3100     0.8350     1.2900 cd         1 7H2       0.196400
      5 C8           0.7480     1.6230     1.6440 cc         1 7H2      -0.359200
      6 C9           2.0730     1.1300     1.5370 c          1 7H2       0.603500
      7 C12          3.4160    -0.5300     0.3360 cc         1 7H2       0.037400
      8 C13          4.5180     0.4550     0.1520 cx         1 7H2      -0.046400
      9 C3           2.4490    -2.6830    -0.0720 cd         1 7H2      -0.056000
     10 C2           3.5850    -1.8320    -0.0310 cd         1 7H2      -0.127300
     11 N6          -0.1770    -0.4110     0.8370 nd         1 7H2      -0.369600
     12 O10          3.0740     1.6280     2.0170 o          1 7H2      -0.591500
     13 N11          2.1710    -0.0880     0.7750 n          1 7H2      -0.097200
     14 C15          5.0810     0.5820    -1.2540 cx         1 7H2      -0.093600
     15 C16          6.5000     0.6780    -1.4150 c1         1 7H2       0.237700
     16 N17          7.6420     0.7490    -1.5430 n1         1 7H2      -0.356800
     17 C18         -1.7180     1.3320     1.4890 c3         1 7H2       0.096500
     18 N19         -2.6500     0.6940     0.5930 na         1 7H2       0.141400
     19 C20         -2.6950     0.8030    -0.7500 cc         1 7H2       0.000100
     20 C21         -3.6980    -0.0090    -1.2080 cd         1 7H2      -0.240300
     21 C22         -4.1960    -0.5790    -0.0290 cd         1 7H2       0.200600
     22 N23         -3.5570    -0.1570     1.0420 nc         1 7H2      -0.445800
     23 C24         -5.2890    -1.5780     0.0890 c3         1 7H2       0.658600
     24 F25         -6.3090    -1.2740    -0.7220 f          1 7H2      -0.227633
     25 F26         -4.8780    -2.8070    -0.2570 f          1 7H2      -0.227633
     26 F27         -5.7620    -1.6540     1.3330 f          1 7H2      -0.227633
     27 CL1         -1.6280     1.8110    -1.5970 cl         1 7H2      -0.030400
     28 H1           0.3230    -2.8040     0.0830 ha         1 7H2       0.177000
     29 H2           3.3500     1.9190    -1.0440 hc         1 7H2       0.090700
     30 H3           4.8680     2.5830    -0.2880 hc         1 7H2       0.090700
     31 H4           0.6040     2.6000     2.0850 ha         1 7H2       0.168000
     32 H6           5.2570     0.4950     0.9440 hc         1 7H2       0.123700
     33 H7           2.5790    -3.7200    -0.3550 ha         1 7H2       0.151000
     34 H8           4.9670    -3.4420    -0.2220 hc         1 7H2       0.052367
     35 H9           5.0590    -2.2830    -1.5330 hc         1 7H2       0.052367
     36 H10          5.7490    -1.8890     0.0400 hc         1 7H2       0.052367
     37 H11          4.5840     0.0470    -2.0550 hc         1 7H2       0.110700
     38 H12         -2.0510     1.1020     2.5020 h1         1 7H2       0.094700
     39 H13         -1.7670     2.4140     1.3700 h1         1 7H2       0.094700
     40 H14         -4.0140    -0.1580    -2.2270 ha         1 7H2       0.187000
     41 C1           4.9140    -2.3800    -0.4550 c3         1 7H2      -0.041800
@<TRIPOS>BOND
     1     1     3 1   
     2     1     9 2   
     3     1    28 1   
     4     2     8 1   
     5     2    14 1   
     6     2    29 1   
     7     2    30 1   
     8     3    11 2   
     9     3    13 1   
    10     4     5 2   
    11     4    11 1   
    12     4    17 1   
    13     5     6 1   
    14     5    31 1   
    15     6    12 2   
    16     6    13 1   
    17     7     8 1   
    18     7    10 2   
    19     7    13 1   
    20     8    14 1   
    21     8    32 1   
    22     9    10 1   
    23     9    33 1   
    24    10    41 1   
    25    14    15 1   
    26    14    37 1   
    27    15    16 3   
    28    17    18 1   
    29    17    38 1   
    30    17    39 1   
    31    18    19 1   
    32    18    22 1   
    33    19    20 2   
    34    19    27 1   
    35    20    21 1   
    36    20    40 1   
    37    21    22 2   
    38    21    23 1   
    39    23    24 1   
    40    23    25 1   
    41    23    26 1   
    42    34    41 1   
    43    35    41 1   
    44    36    41 1   
@<TRIPOS>SUBSTRUCTURE
     1 7H2         1 TEMP              0 ****  ****    0 ROOT
