@<TRIPOS>MOLECULE
7H4
   42    44     1     0     0
SMALL
No Charge or Current Charge


@<TRIPOS>ATOM
      1 N3           1.2100    12.1000    -3.6320 na         1 7H4      -0.325400
      2 C4          -2.8800    17.8040    -4.4660 c6         1 7H4      -0.085400
      3 N2          -1.1690    16.0550    -4.1840 nu         1 7H4      -0.926100
      4 C7           0.0950    20.2650    -6.5630 c          1 7H4       0.600100
      5 C6          -0.6000    18.0420    -5.5960 c6         1 7H4       0.071000
      6 C9          -0.6420    22.2560    -8.0020 c3         1 7H4      -0.085100
      7 C13         -0.0420    11.7690    -4.1970 cc         1 7H4      -0.176100
      8 C8          -0.0830    21.7940    -6.6380 c3         1 7H4      -0.154400
      9 N5           0.9950    16.1960    -3.2570 nb         1 7H4      -0.286000
     10 C1          -2.9840    19.2530    -7.2950 c3         1 7H4      -0.103100
     11 C2          -2.3430    19.8130    -5.9920 c6         1 7H4       0.115700
     12 C3          -3.1080    19.3100    -4.7360 c6         1 7H4      -0.085400
     13 C5          -1.3690    17.5100    -4.3510 c6         1 7H4       0.220500
     14 N1          -0.8870    19.4790    -5.9120 n          1 7H4      -0.410800
     15 O1           1.1210    19.7530    -6.9930 o          1 7H4      -0.605100
     16 C10          0.0020    15.4370    -3.7620 ca         1 7H4       0.429900
     17 C11          0.1650    14.0500    -3.8500 ca         1 7H4      -0.259800
     18 C12         -0.6860    12.9860    -4.3290 cd         1 7H4      -0.208200
     19 C14          1.3300    13.4670    -3.4260 ca         1 7H4       0.149500
     20 N4           2.3360    14.2030    -2.9200 nb         1 7H4      -0.230000
     21 C15          2.1140    15.5390    -2.8610 ca         1 7H4       0.177900
     22 H1           1.9400    11.4330    -3.4010 hn         1 7H4       0.362000
     23 H2          -3.3880    17.5160    -3.5360 hc         1 7H4       0.046700
     24 H3          -3.3300    17.2020    -5.2660 hc         1 7H4       0.046700
     25 H4          -1.8800    15.4220    -4.5440 hn         1 7H4       0.490000
     26 H5          -0.8540    17.4280    -6.4710 h1         1 7H4       0.070200
     27 H6           0.4760    17.9120    -5.4160 h1         1 7H4       0.070200
     28 H7          -0.6900    23.3500    -8.0430 hc         1 7H4       0.040033
     29 H8           0.0010    21.9110    -8.8220 hc         1 7H4       0.040033
     30 H9          -1.6520    21.8670    -8.1680 hc         1 7H4       0.040033
     31 H10         -0.3510    10.7540    -4.4430 h4         1 7H4       0.216000
     32 H11          0.8960    22.2670    -6.4970 hc         1 7H4       0.063200
     33 H12         -0.7690    22.1400    -5.8570 hc         1 7H4       0.063200
     34 H13         -4.0390    19.5430    -7.3700 hc         1 7H4       0.042700
     35 H14         -2.4740    19.6420    -8.1830 hc         1 7H4       0.042700
     36 H15         -2.9350    18.1600    -7.3490 hc         1 7H4       0.042700
     37 H16         -2.4780    20.9010    -6.0240 h1         1 7H4       0.058700
     38 H17         -2.7750    19.8880    -3.8620 hc         1 7H4       0.051200
     39 H18         -4.1820    19.5140    -4.8410 hc         1 7H4       0.051200
     40 H19         -0.9950    18.0490    -3.4660 h1         1 7H4       0.093700
     41 H20         -1.6880    13.1070    -4.7370 ha         1 7H4       0.199000
     42 H21          2.9180    16.1490    -2.4540 h5         1 7H4       0.048100
@<TRIPOS>BOND
     1     1     7 1   
     2     1    19 1   
     3     1    22 1   
     4     2    12 1   
     5     2    13 1   
     6     2    23 1   
     7     2    24 1   
     8     3    13 1   
     9     3    16 1   
    10     3    25 1   
    11     4     8 1   
    12     4    14 1   
    13     4    15 2   
    14     5    13 1   
    15     5    14 1   
    16     5    26 1   
    17     5    27 1   
    18     6     8 1   
    19     6    28 1   
    20     6    29 1   
    21     6    30 1   
    22     7    18 2   
    23     7    31 1   
    24     8    32 1   
    25     8    33 1   
    26     9    16 ar  
    27     9    21 ar  
    28    10    11 1   
    29    10    34 1   
    30    10    35 1   
    31    10    36 1   
    32    11    12 1   
    33    11    14 1   
    34    11    37 1   
    35    12    38 1   
    36    12    39 1   
    37    13    40 1   
    38    16    17 ar  
    39    17    18 1   
    40    17    19 ar  
    41    18    41 1   
    42    19    20 ar  
    43    20    21 ar  
    44    21    42 1   
@<TRIPOS>SUBSTRUCTURE
     1 7H4         1 TEMP              0 ****  ****    0 ROOT
