@<TRIPOS>MOLECULE
7H4
   42    44     1     0     0
SMALL
abcg2


@<TRIPOS>ATOM
      1 N3           1.2840    12.2350    -3.4680 na         1 7H4      -0.325400
      2 C4          -2.8280    17.8730    -4.4690 c6         1 7H4      -0.085400
      3 N2          -1.1860    16.0670    -4.3740 nu         1 7H4      -0.926100
      4 C7           0.0870    20.1830    -6.2540 c          1 7H4       0.600100
      5 C6          -0.7800    17.9330    -5.9260 c6         1 7H4       0.071000
      6 C9          -0.4820    22.0970    -7.8210 c3         1 7H4      -0.085100
      7 C13          0.0420    11.8290    -3.9160 cc         1 7H4      -0.176100
      8 C8          -0.1330    21.6800    -6.3870 c3         1 7H4      -0.154400
      9 N5           1.0010    16.2520    -3.6050 nb         1 7H4      -0.286000
     10 C1          -3.1680    19.3030    -7.3090 c3         1 7H4      -0.103100
     11 C2          -2.3930    19.8020    -6.0860 c6         1 7H4       0.115700
     12 C3          -3.0180    19.3630    -4.7540 c6         1 7H4      -0.085400
     13 C5          -1.3550    17.4950    -4.5710 c6         1 7H4       0.220500
     14 N1          -0.9870    19.3640    -6.1240 n          1 7H4      -0.410800
     15 O1           1.2430    19.7400    -6.2900 o          1 7H4      -0.605100
     16 C10         -0.0370    15.4790    -3.9740 ca         1 7H4       0.429900
     17 C11          0.0930    14.0730    -3.9130 ca         1 7H4      -0.259800
     18 C12         -0.7210    12.9300    -4.2010 cd         1 7H4      -0.208200
     19 C14          1.3350    13.5970    -3.4590 ca         1 7H4       0.149500
     20 N4           2.3790    14.3580    -3.0860 nb         1 7H4      -0.230000
     21 C15          2.1270    15.6560    -3.1890 ca         1 7H4       0.177900
     22 H1           2.0370    11.6250    -3.1900 hn         1 7H4       0.362000
     23 H2          -3.2030    17.6300    -3.4730 hc         1 7H4       0.046700
     24 H3          -3.4010    17.2720    -5.1830 hc         1 7H4       0.046700
     25 H4          -1.9110    15.4640    -4.7320 hn         1 7H4       0.490000
     26 H5          -1.2700    17.3690    -6.7230 h1         1 7H4       0.070200
     27 H6           0.2840    17.7330    -5.9670 h1         1 7H4       0.070200
     28 H7          -0.5160    23.1840    -7.8970 hc         1 7H4       0.040033
     29 H8           0.2710    21.7310    -8.5210 hc         1 7H4       0.040033
     30 H9          -1.4510    21.7070    -8.1320 hc         1 7H4       0.040033
     31 H10         -0.1940    10.7810    -3.9940 h4         1 7H4       0.216000
     32 H11          0.8120    22.1380    -6.0960 hc         1 7H4       0.063200
     33 H12         -0.8930    22.0370    -5.6920 hc         1 7H4       0.063200
     34 H13         -4.1770    19.7170    -7.2890 hc         1 7H4       0.042700
     35 H14         -2.6790    19.6290    -8.2280 hc         1 7H4       0.042700
     36 H15         -3.2520    18.2170    -7.3340 hc         1 7H4       0.042700
     37 H16         -2.4040    20.8860    -6.1130 h1         1 7H4       0.058700
     38 H17         -2.5520    19.9420    -3.9520 hc         1 7H4       0.051200
     39 H18         -4.0800    19.6130    -4.7610 hc         1 7H4       0.051200
     40 H19         -0.7950    18.0070    -3.7870 h1         1 7H4       0.093700
     41 H20         -1.7340    12.9180    -4.5680 ha         1 7H4       0.199000
     42 H21          2.9320    16.3270    -2.9030 h5         1 7H4       0.048100
@<TRIPOS>BOND
     1     1     7 1   
     2     1    19 1   
     3     1    22 1   
     4     2    12 1   
     5     2    13 1   
     6     2    23 1   
     7     2    24 1   
     8     3    13 1   
     9     3    16 1   
    10     3    25 1   
    11     4     8 1   
    12     4    14 1   
    13     4    15 2   
    14     5    13 1   
    15     5    14 1   
    16     5    26 1   
    17     5    27 1   
    18     6     8 1   
    19     6    28 1   
    20     6    29 1   
    21     6    30 1   
    22     7    18 2   
    23     7    31 1   
    24     8    32 1   
    25     8    33 1   
    26     9    16 ar  
    27     9    21 ar  
    28    10    11 1   
    29    10    34 1   
    30    10    35 1   
    31    10    36 1   
    32    11    12 1   
    33    11    14 1   
    34    11    37 1   
    35    12    38 1   
    36    12    39 1   
    37    13    40 1   
    38    16    17 ar  
    39    17    18 1   
    40    17    19 ar  
    41    18    41 1   
    42    19    20 ar  
    43    20    21 ar  
    44    21    42 1   
@<TRIPOS>SUBSTRUCTURE
     1 7H4         1 TEMP              0 ****  ****    0 ROOT
