@<TRIPOS>MOLECULE
7H5
   71    75     1     0     0
SMALL
bcc


@<TRIPOS>ATOM
      1 C4          10.3220    -0.8160     0.6900 c          1 7H5       0.939600
      2 C5           5.7580    -1.3440    -0.6940 c6         1 7H5      -0.080900
      3 C6           4.5240    -0.7490    -1.3550 c6         1 7H5       0.218300
      4 C7           2.3780    -0.2240    -0.2860 ca         1 7H5       0.786200
      5 C3           7.7510    -0.9660     0.8390 c5         1 7H5      -0.045400
      6 C2           8.9710    -0.1240     0.4760 c5         1 7H5       0.034500
      7 C1           7.3030     0.6740    -0.8920 c5         1 7H5       0.157800
      8 O           11.1660    -0.7330    -0.2220 o          1 7H5      -0.832300
      9 C            6.5810    -0.3060     0.0720 c5         1 7H5      -0.064000
     10 N            8.6770     0.2130    -0.9040 n7         1 7H5      -0.783200
     11 O4          -6.8880    -3.9010     0.5480 o          1 7H5      -0.596800
     12 O3          -7.2260    -1.5280     1.3160 o          1 7H5      -0.596800
     13 C25         -5.3530    -2.9660     2.4770 c3         1 7H5      -0.223300
     14 C23         -5.1220    -2.0820    -0.1600 ca         1 7H5      -0.269500
     15 C22         -4.6120    -2.9710    -1.0910 ca         1 7H5      -0.030000
     16 C21         -3.6710    -2.5090    -2.0010 ca         1 7H5      -0.160000
     17 C20         -3.2400    -1.1920    -1.9550 ca         1 7H5      -0.043000
     18 C24         -4.7140    -0.7550    -0.1140 ca         1 7H5      -0.029000
     19 C19         -3.7490    -0.3060    -1.0060 cp         1 7H5      -0.058000
     20 C14         -3.2860     1.1030    -0.9930 cp         1 7H5       0.005000
     21 C15         -3.6450     1.9090    -2.0710 ca         1 7H5      -0.120000
     22 C16         -3.2160     3.2230    -2.1260 ca         1 7H5       0.042400
     23 CL          -3.6780     4.2110    -3.4680 cl         1 7H5      -0.107400
     24 C17         -2.4180     3.7550    -1.1270 ca         1 7H5      -0.123000
     25 C18         -2.0550     2.9480    -0.0640 ca         1 7H5      -0.084000
     26 C13         -2.4860     1.6260     0.0270 ca         1 7H5      -0.103300
     27 C11         -1.9940     0.7700     1.1690 c3         1 7H5       0.138400
     28 C12         -2.5990     1.1480     2.5150 c3         1 7H5       0.669900
     29 F2          -2.2610     2.3730     2.9190 f          1 7H5      -0.230967
     30 F1          -2.2130     0.2960     3.4680 f          1 7H5      -0.230967
     31 O2          -0.6010     0.9260     1.3450 os         1 7H5      -0.432100
     32 C9           0.2130     0.2120     0.5430 ca         1 7H5       0.723600
     33 C8           1.5500     0.5530     0.5500 ca         1 7H5      -0.510600
     34 N2          -0.3190    -0.7530    -0.1760 nb         1 7H5      -0.903000
     35 C10          0.5490    -1.4330    -0.9330 ca         1 7H5       0.965900
     36 N4           0.0320    -2.4160    -1.7020 nv         1 7H5      -0.954500
     37 N3           1.8520    -1.2150    -1.0200 nb         1 7H5      -0.870000
     38 N1           3.7080    -0.0210    -0.3960 nh         1 7H5      -0.762300
     39 C26          4.4310     1.0180     0.3130 c6         1 7H5       0.218300
     40 C27          5.6440     0.4360     1.0240 c6         1 7H5      -0.080900
     41 O1          10.4680    -1.3840     1.7920 o          1 7H5      -0.832300
     42 H1           5.4470    -2.1390    -0.0080 hc         1 7H5       0.053700
     43 H2           6.3770    -1.8150    -1.4620 hc         1 7H5       0.053700
     44 H3           4.8180    -0.0620    -2.1580 h1         1 7H5       0.049950
     45 H4           3.9220    -1.5290    -1.8080 h1         1 7H5       0.049950
     46 H5           7.8940    -1.9960     0.4990 hc         1 7H5       0.049200
     47 H6           7.5730    -1.0010     1.9140 hc         1 7H5       0.049200
     48 H7           8.9630     0.7740     1.1240 h1         1 7H5      -0.002300
     49 H8           6.8820     0.6720    -1.9010 h1         1 7H5       0.006200
     50 H9           7.2020     1.7040    -0.5110 h1         1 7H5       0.006200
     51 H10          9.3110     0.9100    -1.2710 hn         1 7H5       0.363800
     52 H12         -4.6030    -3.7190     2.2510 h1         1 7H5       0.103700
     53 H13         -4.8790    -2.0460     2.8130 h1         1 7H5       0.103700
     54 H14         -6.0330    -3.3330     3.2450 h1         1 7H5       0.103700
     55 H15         -4.9400    -4.0000    -1.1210 ha         1 7H5       0.156000
     56 H16         -3.2720    -3.1830    -2.7470 ha         1 7H5       0.138000
     57 H17         -2.4940    -0.8480    -2.6590 ha         1 7H5       0.152000
     58 H18         -5.1590    -0.0690     0.5930 ha         1 7H5       0.162000
     59 H19         -4.2620     1.5030    -2.8620 ha         1 7H5       0.152000
     60 H20         -2.0750     4.7790    -1.1780 ha         1 7H5       0.152000
     61 H21         -1.4070     3.3680     0.6940 ha         1 7H5       0.156000
     62 H22         -2.2460    -0.2790     0.9870 h1         1 7H5       0.110700
     63 H23          1.8960     1.3780     1.1510 ha         1 7H5       0.164000
     64 H24         -0.8910    -2.7480    -1.4810 hn         1 7H5       0.430300
     65 H25          0.6640    -3.0850    -2.1070 hn         1 7H5       0.430300
     66 H26          4.7390     1.7940    -0.3990 h1         1 7H5       0.049950
     67 H27          3.7890     1.5040     1.0410 h1         1 7H5       0.049950
     68 H28          5.2940    -0.2480     1.8030 hc         1 7H5       0.053700
     69 H29          6.1810     1.2430     1.5310 hc         1 7H5       0.053700
     70 F           -3.9340     1.1030     2.4540 f          1 7H5      -0.230967
     71 S           -6.3240    -2.6390     1.0230 sy         1 7H5       1.087300
@<TRIPOS>BOND
     1     1     6 1   
     2     1     8 1   
     3     1    41 1   
     4     2     3 1   
     5     2     9 1   
     6     2    42 1   
     7     2    43 1   
     8     3    38 1   
     9     3    44 1   
    10     3    45 1   
    11     4    33 ar  
    12     4    37 ar  
    13     4    38 1   
    14     5     6 1   
    15     5     9 1   
    16     5    46 1   
    17     5    47 1   
    18     6    10 1   
    19     6    48 1   
    20     7     9 1   
    21     7    10 1   
    22     7    49 1   
    23     7    50 1   
    24     9    40 1   
    25    10    51 1   
    26    11    71 2   
    27    12    71 2   
    28    13    52 1   
    29    13    53 1   
    30    13    54 1   
    31    13    71 1   
    32    14    15 ar  
    33    14    18 ar  
    34    14    71 1   
    35    15    16 ar  
    36    15    55 1   
    37    16    17 ar  
    38    16    56 1   
    39    17    19 ar  
    40    17    57 1   
    41    18    19 ar  
    42    18    58 1   
    43    19    20 1   
    44    20    21 ar  
    45    20    26 ar  
    46    21    22 ar  
    47    21    59 1   
    48    22    23 1   
    49    22    24 ar  
    50    24    25 ar  
    51    24    60 1   
    52    25    26 ar  
    53    25    61 1   
    54    26    27 1   
    55    27    28 1   
    56    27    31 1   
    57    27    62 1   
    58    28    29 1   
    59    28    30 1   
    60    28    70 1   
    61    31    32 1   
    62    32    33 ar  
    63    32    34 ar  
    64    33    63 1   
    65    34    35 ar  
    66    35    36 1   
    67    35    37 ar  
    68    36    64 1   
    69    36    65 1   
    70    38    39 1   
    71    39    40 1   
    72    39    66 1   
    73    39    67 1   
    74    40    68 1   
    75    40    69 1   
@<TRIPOS>SUBSTRUCTURE
     1 7H5         1 TEMP              0 ****  ****    0 ROOT
