@<TRIPOS>MOLECULE
7H5
   71    75     1     0     0
SMALL
No Charge or Current Charge


@<TRIPOS>ATOM
      1 C4          10.4340     0.9630     0.3880 c          1 7H5       0.729000
      2 C5           6.1150    -1.7280    -0.0760 c6         1 7H5      -0.080900
      3 C6           4.7080    -1.7080    -0.7250 c6         1 7H5       0.218300
      4 C7           2.4050    -0.9130    -0.0590 ca         1 7H5       0.457900
      5 C3           8.1940    -0.3650     0.6360 c5         1 7H5      -0.045400
      6 C2           8.8920     0.8600    -0.0110 c5         1 7H5       0.034500
      7 C1           7.1520     0.2230    -1.4860 c5         1 7H5       0.157800
      8 O           11.0650     1.9490     0.0240 o          1 7H5      -0.727000
      9 C            6.7880    -0.3230    -0.0500 c5         1 7H5      -0.064000
     10 N            8.5820     0.6080    -1.4550 n7         1 7H5      -0.838400
     11 O4          -7.8570    -3.0200     0.0500 o          1 7H5      -0.526000
     12 O3          -7.6930    -0.6530     1.0130 o          1 7H5      -0.526000
     13 C25         -6.3760    -2.5950     2.1750 c3         1 7H5      -0.334100
     14 C23         -5.6150    -1.6210    -0.3520 ca         1 7H5      -0.269500
     15 C22         -5.1700    -2.5820    -1.2820 ca         1 7H5      -0.012000
     16 C21         -4.0300    -2.3250    -2.0620 ca         1 7H5      -0.142000
     17 C20         -3.3250    -1.1200    -1.9080 ca         1 7H5      -0.025000
     18 C24         -4.9050    -0.4120    -0.2020 ca         1 7H5      -0.011000
     19 C19         -3.7450    -0.1520    -0.9670 cp         1 7H5      -0.058000
     20 C14         -2.9820     1.1150    -0.7990 cp         1 7H5       0.005000
     21 C15         -3.0460     2.0900    -1.8200 ca         1 7H5      -0.102000
     22 C16         -2.3370     3.2940    -1.7180 ca         1 7H5       0.134000
     23 Cl          -2.4400     4.4890    -3.0040 cl         1 7H5      -0.199000
     24 C17         -1.5400     3.5420    -0.5930 ca         1 7H5      -0.105000
     25 C18         -1.4530     2.5830     0.4290 ca         1 7H5      -0.066000
     26 C13         -2.1690     1.3670     0.3450 ca         1 7H5      -0.103300
     27 C11         -2.0110     0.3320     1.4760 c3         1 7H5       0.161600
     28 C12         -2.6890     0.7550     2.8160 c3         1 7H5       0.306000
     29 F2          -2.0810     1.8270     3.3770 f          1 7H5      -0.109667
     30 F1          -2.6470    -0.2570     3.7130 f          1 7H5      -0.109667
     31 O2          -0.5970     0.1230     1.7180 os         1 7H5      -0.455300
     32 C9           0.2050    -0.4900     0.7850 ca         1 7H5       0.395300
     33 C8           1.5810    -0.2760     0.8750 ca         1 7H5      -0.362000
     34 N2          -0.3120    -1.3060    -0.1500 nb         1 7H5      -0.377000
     35 C10          0.5650    -1.8670    -0.9800 ca         1 7H5       0.439900
     36 N4           0.0460    -2.6980    -1.9030 nv         1 7H5      -1.064900
     37 N3           1.8890    -1.7270    -0.9960 nb         1 7H5      -0.344000
     38 N1           3.8060    -0.7420    -0.0340 nh         1 7H5      -0.762300
     39 C26          4.3770     0.6300     0.0670 c6         1 7H5       0.218300
     40 C27          5.7880     0.6110     0.7080 c6         1 7H5      -0.080900
     41 O1          10.9680     0.0800     1.0510 o          1 7H5      -0.727000
     42 H1           6.0320    -2.1180     0.9480 hc         1 7H5       0.053700
     43 H2           6.7510    -2.4370    -0.6220 hc         1 7H5       0.053700
     44 H3           4.7950    -1.4490    -1.7910 h1         1 7H5       0.049950
     45 H4           4.2970    -2.7270    -0.6690 h1         1 7H5       0.049950
     46 H5           8.7270    -1.2950     0.4040 hc         1 7H5       0.049200
     47 H6           8.1380    -0.2890     1.7280 hc         1 7H5       0.049200
     48 H7           8.4080     1.7920     0.3120 h1         1 7H5      -0.002300
     49 H8           6.9850    -0.5260    -2.2710 h1         1 7H5       0.006200
     50 H9           6.5420     1.1000    -1.7390 h1         1 7H5       0.006200
     51 H10          8.7490     1.4510    -2.0200 hn         1 7H5       0.419000
     52 H12         -5.8180    -3.5040     1.9270 h1         1 7H5       0.103700
     53 H13         -5.7120    -1.8370     2.6030 h1         1 7H5       0.103700
     54 H14         -7.2000    -2.8200     2.8600 h1         1 7H5       0.103700
     55 H15         -5.7030    -3.5240    -1.4090 ha         1 7H5       0.138000
     56 H16         -3.6910    -3.0630    -2.7860 ha         1 7H5       0.120000
     57 H17         -2.4390    -0.9320    -2.5110 ha         1 7H5       0.134000
     58 H18         -5.2510     0.3400     0.5050 ha         1 7H5       0.144000
     59 H19         -3.6580     1.9060    -2.7000 ha         1 7H5       0.134000
     60 H20         -0.9840     4.4720    -0.5170 ha         1 7H5       0.134000
     61 H21         -0.8140     2.7840     1.2870 ha         1 7H5       0.138000
     62 H22         -2.4770    -0.6170     1.1810 h1         1 7H5       0.110700
     63 H23          1.9880     0.3560     1.6540 ha         1 7H5       0.146000
     64 H24         -0.8980    -3.0390    -1.7470 hn         1 7H5       0.485500
     65 H25          0.6810    -3.3240    -2.3900 hn         1 7H5       0.485500
     66 H26          4.4320     1.0830    -0.9330 h1         1 7H5       0.049950
     67 H27          3.7350     1.2840     0.6740 h1         1 7H5       0.049950
     68 H28          5.6970     0.2850     1.7530 hc         1 7H5       0.053700
     69 H29          6.1740     1.6380     0.7440 hc         1 7H5       0.053700
     70 F           -3.9890     1.0760     2.6240 f          1 7H5      -0.109667
     71 S           -7.0740    -1.9380     0.6610 sy         1 7H5       1.056500
@<TRIPOS>BOND
     1     1     6 1   
     2     1     8 1   
     3     1    41 1   
     4     2     3 1   
     5     2     9 1   
     6     2    42 1   
     7     2    43 1   
     8     3    38 1   
     9     3    44 1   
    10     3    45 1   
    11     4    33 ar  
    12     4    37 ar  
    13     4    38 1   
    14     5     6 1   
    15     5     9 1   
    16     5    46 1   
    17     5    47 1   
    18     6    10 1   
    19     6    48 1   
    20     7     9 1   
    21     7    10 1   
    22     7    49 1   
    23     7    50 1   
    24     9    40 1   
    25    10    51 1   
    26    11    71 2   
    27    12    71 2   
    28    13    52 1   
    29    13    53 1   
    30    13    54 1   
    31    13    71 1   
    32    14    15 ar  
    33    14    18 ar  
    34    14    71 1   
    35    15    16 ar  
    36    15    55 1   
    37    16    17 ar  
    38    16    56 1   
    39    17    19 ar  
    40    17    57 1   
    41    18    19 ar  
    42    18    58 1   
    43    19    20 1   
    44    20    21 ar  
    45    20    26 ar  
    46    21    22 ar  
    47    21    59 1   
    48    22    23 1   
    49    22    24 ar  
    50    24    25 ar  
    51    24    60 1   
    52    25    26 ar  
    53    25    61 1   
    54    26    27 1   
    55    27    28 1   
    56    27    31 1   
    57    27    62 1   
    58    28    29 1   
    59    28    30 1   
    60    28    70 1   
    61    31    32 1   
    62    32    33 ar  
    63    32    34 ar  
    64    33    63 1   
    65    34    35 ar  
    66    35    36 1   
    67    35    37 ar  
    68    36    64 1   
    69    36    65 1   
    70    38    39 1   
    71    39    40 1   
    72    39    66 1   
    73    39    67 1   
    74    40    68 1   
    75    40    69 1   
@<TRIPOS>SUBSTRUCTURE
     1 7H5         1 TEMP              0 ****  ****    0 ROOT
