@<TRIPOS>MOLECULE
7H6
   41    42     1     0     0
SMALL
bcc


@<TRIPOS>ATOM
      1 C4          -0.1460     0.4880     0.2230 c5         1 7H6      -0.008000
      2 C5           1.0110     1.1790     0.9670 c6         1 7H6      -0.072400
      3 C6           2.3810     0.5820     0.6830 c6         1 7H6       0.192300
      4 C8          -0.2760    -0.9970     0.7320 c5         1 7H6      -0.040700
      5 C10         -1.8560     0.4160     1.9350 c5         1 7H6      -0.049400
      6 C15         -2.5780     1.2570    -0.3840 c          1 7H6       0.926600
      7 O3          -3.4670     0.3810    -0.3740 o          1 7H6      -0.842300
      8 O2          -2.5200     2.2170    -1.1850 o          1 7H6      -0.842300
      9 C11         -1.4630     1.1930     0.6810 c5         1 7H6      -0.183700
     10 C9          -1.5490    -1.0370     1.5960 c5         1 7H6      -0.072400
     11 C12         -0.1830    -2.1350    -0.3030 c3         1 7H6      -0.047700
     12 C14         -1.4470    -2.3840    -1.1280 c3         1 7H6      -0.086100
     13 C3           0.1480     0.6540    -1.2700 c6         1 7H6      -0.045200
     14 C2           1.5730     0.3770    -1.6410 c2         1 7H6      -0.115200
     15 O1           3.3450     1.4760     1.2250 oh         1 7H6      -0.606800
     16 C1           2.5970     0.3490    -0.7900 c2         1 7H6      -0.197400
     17 H1           1.0340     2.2330     0.6670 hc         1 7H6       0.049200
     18 H2           0.8350     1.1630     2.0470 hc         1 7H6       0.049200
     19 H3           2.4730    -0.3890     1.1950 h1         1 7H6       0.021700
     20 H4           4.0360    -0.2200    -2.2850 hc         1 7H6       0.025033
     21 H5           4.6710     0.8870    -1.0740 hc         1 7H6       0.025033
     22 H6           4.4130    -0.7990    -0.6630 hc         1 7H6       0.025033
     23 H7           0.5670    -1.1650     1.4110 hc         1 7H6       0.014700
     24 H8          -1.2470     0.7450     2.7830 hc         1 7H6       0.020700
     25 H9          -2.8970     0.5690     2.2220 hc         1 7H6       0.020700
     26 H10          0.3160    -4.2530    -0.3400 hc         1 7H6       0.027867
     27 H11          1.1990    -3.3370     0.8790 hc         1 7H6       0.027867
     28 H12         -0.4980    -3.7430     1.1350 hc         1 7H6       0.027867
     29 H14         -1.2210     2.2320     0.9270 hc         1 7H6       0.040700
     30 H15         -2.3850    -1.4440     1.0320 hc         1 7H6       0.039700
     31 H16         -1.4230    -1.6630     2.4820 hc         1 7H6       0.039700
     32 H17          0.6210    -1.8820    -1.0000 hc         1 7H6       0.038700
     33 H18         -2.1970    -2.9310    -0.5540 hc         1 7H6       0.027867
     34 H19         -1.9200    -1.4670    -1.4750 hc         1 7H6       0.027867
     35 H20         -1.2060    -2.9940    -2.0010 hc         1 7H6       0.027867
     36 H21         -0.5050     0.0250    -1.8770 hc         1 7H6       0.080200
     37 H22         -0.1010     1.6780    -1.5680 hc         1 7H6       0.080200
     38 H23          1.7670     0.1900    -2.6950 ha         1 7H6       0.102000
     39 H24          4.1830     1.0110     1.3000 ho         1 7H6       0.384000
     40 C7           3.9980     0.0410    -1.2280 c3         1 7H6      -0.041900
     41 C13          0.2320    -3.4370     0.3820 c3         1 7H6      -0.086100
@<TRIPOS>BOND
     1     1     2 1   
     2     1     4 1   
     3     1     9 1   
     4     1    13 1   
     5     2     3 1   
     6     2    17 1   
     7     2    18 1   
     8     3    15 1   
     9     3    16 1   
    10     3    19 1   
    11     4    10 1   
    12     4    11 1   
    13     4    23 1   
    14     5     9 1   
    15     5    10 1   
    16     5    24 1   
    17     5    25 1   
    18     6     7 1   
    19     6     8 1   
    20     6     9 1   
    21     9    29 1   
    22    10    30 1   
    23    10    31 1   
    24    11    12 1   
    25    11    32 1   
    26    11    41 1   
    27    12    33 1   
    28    12    34 1   
    29    12    35 1   
    30    13    14 1   
    31    13    36 1   
    32    13    37 1   
    33    14    16 2   
    34    14    38 1   
    35    15    39 1   
    36    16    40 1   
    37    20    40 1   
    38    21    40 1   
    39    22    40 1   
    40    26    41 1   
    41    27    41 1   
    42    28    41 1   
@<TRIPOS>SUBSTRUCTURE
     1 7H6         1 TEMP              0 ****  ****    0 ROOT
