@<TRIPOS>MOLECULE
7H6
   41    42     1     0     0
SMALL
No Charge or Current Charge


@<TRIPOS>ATOM
      1 C4          -0.2250     0.5380     0.3810 c5         1 7H6      -0.008000
      2 C5           1.1060     1.1390     0.9500 c6         1 7H6      -0.072400
      3 C6           2.4100     0.5150     0.3900 c6         1 7H6       0.215500
      4 C8          -0.4660    -0.9790     0.8750 c5         1 7H6      -0.040700
      5 C10         -2.3370     0.1620     1.7430 c5         1 7H6      -0.049400
      6 C15         -2.3590     2.1510     0.1320 c          1 7H6       0.716000
      7 O3          -3.0260     1.6310    -0.7520 o          1 7H6      -0.737000
      8 O2          -2.4210     3.3540     0.3440 o          1 7H6      -0.737000
      9 C11         -1.4680     1.2800     1.0840 c5         1 7H6      -0.183700
     10 C9          -2.0120    -1.0750     0.8880 c5         1 7H6      -0.072400
     11 C12          0.2490    -2.1990     0.1870 c3         1 7H6      -0.047700
     12 C14         -0.3240    -2.6310    -1.1890 c3         1 7H6      -0.086100
     13 C3          -0.1290     0.8150    -1.1790 c6         1 7H6      -0.045200
     14 C2           1.1970     0.4020    -1.8070 c2         1 7H6      -0.165200
     15 O1           3.5080     1.3800     0.6830 oh         1 7H6      -0.669000
     16 C1           2.3430     0.2630    -1.1180 c2         1 7H6      -0.197400
     17 H1           1.1150     2.2180     0.7390 hc         1 7H6       0.049200
     18 H2           1.1190     1.0560     2.0450 hc         1 7H6       0.049200
     19 H3           2.5730    -0.4480     0.8940 h1         1 7H6       0.021700
     20 H4           3.4630    -0.5190    -2.8140 hc         1 7H6       0.025033
     21 H5           4.4140     0.5140    -1.7450 hc         1 7H6       0.025033
     22 H6           3.9960    -1.1380    -1.2480 hc         1 7H6       0.025033
     23 H7           0.0810    -1.0480     2.5240 hc         1 7H6       0.014700
     24 H8          -2.0490     0.0050     2.7890 hc         1 7H6       0.020700
     25 H9          -3.4080     0.3980     1.7470 hc         1 7H6       0.020700
     26 H10          0.8150    -4.2630     0.6560 hc         1 7H6       0.027867
     27 H11          0.7940    -3.1930     2.0640 hc         1 7H6       0.027867
     28 H12         -0.7350    -3.7670     1.3640 hc         1 7H6       0.027867
     29 H14         -1.0980     1.9580     1.8610 hc         1 7H6       0.040700
     30 H15         -2.4500    -1.0150    -0.1140 hc         1 7H6       0.039700
     31 H16         -2.3760    -1.9970     1.3560 hc         1 7H6       0.039700
     32 H17          1.2970    -1.9450     0.0140 hc         1 7H6       0.038700
     33 H18         -1.3590    -2.9830    -1.0950 hc         1 7H6       0.027867
     34 H19         -0.3050    -1.8230    -1.9230 hc         1 7H6       0.027867
     35 H20          0.2680    -3.4550    -1.6050 hc         1 7H6       0.027867
     36 H21         -0.9550     0.3130    -1.6980 hc         1 7H6       0.080200
     37 H22         -0.2550     1.8870    -1.3820 hc         1 7H6       0.080200
     38 H23          1.1650     0.1880    -2.8760 ha         1 7H6       0.152000
     39 H24          4.2540     1.0490     0.1430 ho         1 7H6       0.423000
     40 C7           3.6230    -0.2450    -1.7640 c3         1 7H6      -0.041900
     41 C13          0.2800    -3.4290     1.1250 c3         1 7H6      -0.086100
@<TRIPOS>BOND
     1     1     2 1   
     2     1     4 1   
     3     1     9 1   
     4     1    13 1   
     5     2     3 1   
     6     2    17 1   
     7     2    18 1   
     8     3    15 1   
     9     3    16 1   
    10     3    19 1   
    11     4    10 1   
    12     4    11 1   
    13     4    23 1   
    14     5     9 1   
    15     5    10 1   
    16     5    24 1   
    17     5    25 1   
    18     6     7 1   
    19     6     8 1   
    20     6     9 1   
    21     9    29 1   
    22    10    30 1   
    23    10    31 1   
    24    11    12 1   
    25    11    32 1   
    26    11    41 1   
    27    12    33 1   
    28    12    34 1   
    29    12    35 1   
    30    13    14 1   
    31    13    36 1   
    32    13    37 1   
    33    14    16 2   
    34    14    38 1   
    35    15    39 1   
    36    16    40 1   
    37    20    40 1   
    38    21    40 1   
    39    22    40 1   
    40    26    41 1   
    41    27    41 1   
    42    28    41 1   
@<TRIPOS>SUBSTRUCTURE
     1 7H6         1 TEMP              0 ****  ****    0 ROOT
