@<TRIPOS>MOLECULE
7H8
   73    77     1     0     0
SMALL
abcg2


@<TRIPOS>ATOM
      1 C1          -3.6810    -4.5460     1.4480 c3         1 7H8      -0.133100
      2 C2          -3.3480    -3.3600     0.5690 c6         1 7H8       0.117300
      3 C3          -1.9690    -2.8000     0.8370 c6         1 7H8       0.136800
      4 N4          -1.6770    -1.6460     0.0020 n3         1 7H8      -0.699600
      5 C5          -0.2840    -1.2830     0.1150 c3         1 7H8       0.079800
      6 C6           0.6150    -2.2240    -0.6640 c          1 7H8       0.607100
      7 C10          4.2710    -2.6560    -0.7430 c5         1 7H8      -0.107300
      8 C11          4.6660    -3.6840     0.3230 c3         1 7H8      -0.079100
      9 C12          5.3130    -2.6160    -1.8540 c3         1 7H8      -0.079100
     10 C13          4.0700    -1.3190    -0.0830 ca         1 7H8       0.324300
     11 C15          4.6900     0.5990     0.9430 ca         1 7H8       0.324900
     12 C16          3.3750     0.9860     1.1420 ca         1 7H8      -0.100300
     13 C19          2.6260     3.6280    -0.2740 ca         1 7H8      -0.108500
     14 C21          0.5480     4.7750    -0.6710 ca         1 7H8      -0.104000
     15 C22          0.0760     4.3230     0.5520 ca         1 7H8      -0.111000
     16 C23          0.8750     3.5190     1.3580 ca         1 7H8      -0.108500
     17 C24          2.3530     0.1480     0.6880 ca         1 7H8      -0.116000
     18 C25          2.7070    -1.0300     0.0570 ca         1 7H8      -0.087000
     19 C26         -2.6070    -0.5590     0.2940 c6         1 7H8       0.143500
     20 C27         -2.3500     0.6720    -0.5920 c3         1 7H8       0.105000
     21 C31         -5.0760     3.1820    -0.7900 c5         1 7H8      -0.163400
     22 O7           0.1740    -3.1070    -1.3740 o          1 7H8      -0.568100
     23 N8           1.9610    -2.0500    -0.5410 n          1 7H8      -0.212400
     24 C9           2.8610    -2.9420    -1.2900 c5         1 7H8       0.094000
     25 N14          5.0350    -0.5430     0.3420 nb         1 7H8      -0.616000
     26 C18          2.1590     3.1660     0.9560 ca         1 7H8      -0.085300
     27 C20          1.8290     4.4250    -1.0820 ca         1 7H8      -0.111000
     28 N28         -3.3320     1.7060    -0.4210 n          1 7H8      -0.442800
     29 C29         -3.3920     2.5150     0.7830 c5         1 7H8       0.091000
     30 C30         -4.2130     3.7280     0.3430 c5         1 7H8      -0.091400
     31 C32         -4.2710     2.0250    -1.3400 c          1 7H8       0.556000
     32 O33         -4.4370     1.4580    -2.4060 o          1 7H8      -0.532000
     33 C34         -4.0230    -1.0410     0.0160 c6         1 7H8       0.098600
     34 N35         -4.3360    -2.2620     0.7980 ny         1 7H8      -0.821000
     35 H37         -4.6860    -4.9180     1.2500 hc         1 7H8       0.077700
     36 H38         -2.9820    -5.3540     1.2390 hc         1 7H8       0.077700
     37 H36         -3.6030    -4.2960     2.5070 hc         1 7H8       0.077700
     38 H39         -3.4440    -3.6230    -0.4850 hx         1 7H8       0.126700
     39 H41         -1.8730    -2.5610     1.9100 h1         1 7H8       0.077700
     40 H40         -1.2560    -3.5950     0.6270 h1         1 7H8       0.077700
     41 H43         -0.1270    -0.2930    -0.3110 h1         1 7H8       0.073700
     42 H42          0.0530    -1.2270     1.1620 h1         1 7H8       0.073700
     43 H46          4.7820    -4.6720    -0.1270 hc         1 7H8       0.048200
     44 H47          5.6140    -3.4100     0.7860 hc         1 7H8       0.048200
     45 H48          3.9140    -3.7580     1.1110 hc         1 7H8       0.048200
     46 H51          5.0680    -1.8640    -2.6050 hc         1 7H8       0.048200
     47 H49          6.2980    -2.3850    -1.4510 hc         1 7H8       0.048200
     48 H50          5.3720    -3.5850    -2.3540 hc         1 7H8       0.048200
     49 H52          5.5020     1.2350     1.2780 h4         1 7H8       0.033100
     50 H57         -0.0740     5.3990    -1.2990 ha         1 7H8       0.119000
     51 H58         -0.9150     4.6060     0.8860 ha         1 7H8       0.114000
     52 H59          0.4980     3.1690     2.3120 ha         1 7H8       0.112500
     53 H60          1.3330     0.4650     0.8410 ha         1 7H8       0.111000
     54 H61         -2.5380    -0.2550     1.3540 h1         1 7H8       0.038700
     55 H62         -1.3770     1.1080    -0.3610 h1         1 7H8       0.088200
     56 H63         -2.3350     0.3660    -1.6390 h1         1 7H8       0.088200
     57 H68         -6.0300     2.7920    -0.4250 hc         1 7H8       0.087200
     58 H69         -5.2970     3.9090    -1.5710 hc         1 7H8       0.087200
     59 H45          2.7920    -2.7110    -2.3560 h1         1 7H8       0.071700
     60 H44          2.5680    -3.9810    -1.1500 h1         1 7H8       0.071700
     61 H56          2.2080     4.7760    -2.0330 ha         1 7H8       0.114000
     62 H65         -3.8800     1.9730     1.5990 h1         1 7H8       0.044200
     63 H64         -2.3870     2.7780     1.1180 h1         1 7H8       0.044200
     64 H66         -3.5480     4.5060    -0.0370 hc         1 7H8       0.071200
     65 H67         -4.7890     4.1530     1.1620 hc         1 7H8       0.071200
     66 H70         -4.7590    -0.2930     0.2950 hx         1 7H8       0.114200
     67 H71         -4.1490    -1.2910    -1.0360 hx         1 7H8       0.114200
     68 H73         -5.2760    -2.5810     0.5580 hn         1 7H8       0.496500
     69 H72         -4.3740    -2.0320     1.7940 hn         1 7H8       0.496500
     70 C17          3.0330     2.2880     1.8170 c3         1 7H8       0.014200
     71 H55          3.6250     3.3630    -0.6020 ha         1 7H8       0.112500
     72 H54          2.5230     2.0840     2.7620 hc         1 7H8       0.064200
     73 H53          3.9570     2.8130     2.0720 hc         1 7H8       0.064200
@<TRIPOS>BOND
     1     1     2 1   
     2     1    35 1   
     3     1    36 1   
     4     1    37 1   
     5     2     3 1   
     6     2    34 1   
     7     2    38 1   
     8     3     4 1   
     9     3    39 1   
    10     3    40 1   
    11     4     5 1   
    12     4    19 1   
    13     5     6 1   
    14     5    41 1   
    15     5    42 1   
    16     6    22 2   
    17     6    23 1   
    18     7     8 1   
    19     7     9 1   
    20     7    10 1   
    21     7    24 1   
    22     8    43 1   
    23     8    44 1   
    24     8    45 1   
    25     9    46 1   
    26     9    47 1   
    27     9    48 1   
    28    10    18 ar  
    29    10    25 ar  
    30    11    12 ar  
    31    11    25 ar  
    32    11    49 1   
    33    12    17 ar  
    34    12    70 1   
    35    13    26 ar  
    36    13    27 ar  
    37    13    71 1   
    38    14    15 ar  
    39    14    27 ar  
    40    14    50 1   
    41    15    16 ar  
    42    15    51 1   
    43    16    26 ar  
    44    16    52 1   
    45    17    18 ar  
    46    17    53 1   
    47    18    23 1   
    48    19    20 1   
    49    19    33 1   
    50    19    54 1   
    51    20    28 1   
    52    20    55 1   
    53    20    56 1   
    54    21    30 1   
    55    21    31 1   
    56    21    57 1   
    57    21    58 1   
    58    23    24 1   
    59    24    59 1   
    60    24    60 1   
    61    26    70 1   
    62    27    61 1   
    63    28    29 1   
    64    28    31 1   
    65    29    30 1   
    66    29    62 1   
    67    29    63 1   
    68    30    64 1   
    69    30    65 1   
    70    31    32 2   
    71    33    34 1   
    72    33    66 1   
    73    33    67 1   
    74    34    68 1   
    75    34    69 1   
    76    70    72 1   
    77    70    73 1   
@<TRIPOS>SUBSTRUCTURE
     1 7H8         1 TEMP              0 ****  ****    0 ROOT
