@<TRIPOS>MOLECULE
7H8
   73    77     1     0     0
SMALL
No Charge or Current Charge


@<TRIPOS>ATOM
      1 C1          -3.5530    -4.7410     1.2740 c3         1 7H8      -0.133100
      2 C2          -3.3460    -3.5250     0.3460 c6         1 7H8       0.117300
      3 C3          -1.9090    -2.9360     0.4040 c6         1 7H8       0.136800
      4 N4          -1.7650    -1.6440    -0.3580 n3         1 7H8      -0.699600
      5 C5          -0.3200    -1.2100    -0.4240 c3         1 7H8       0.079800
      6 C6           0.7380    -2.1590    -1.0680 c          1 7H8       0.607100
      7 C10          4.3920    -2.7680    -0.3140 c5         1 7H8      -0.107300
      8 C11          4.6470    -3.7100     0.8920 c3         1 7H8      -0.079100
      9 C12          5.6170    -2.8360    -1.2640 c3         1 7H8      -0.079100
     10 C13          4.1060    -1.3430     0.1590 ca         1 7H8       0.324300
     11 C15          4.6050     0.6980     1.1210 ca         1 7H8       0.324900
     12 C16          3.2840     1.1670     0.9330 ca         1 7H8      -0.100300
     13 C19          2.4880     3.6710    -0.8720 ca         1 7H8      -0.108500
     14 C21          0.2950     4.5130    -1.5120 ca         1 7H8      -0.104000
     15 C22         -0.2180     4.1140    -0.2670 ca         1 7H8      -0.111000
     16 C23          0.6180     3.4910     0.6750 ca         1 7H8      -0.108500
     17 C24          2.3430     0.3110     0.3270 ca         1 7H8      -0.116000
     18 C25          2.7910    -0.9640    -0.0710 ca         1 7H8      -0.087000
     19 C26         -2.7040    -0.5800     0.1730 c6         1 7H8       0.143500
     20 C27         -2.6140     0.7950    -0.5700 c3         1 7H8       0.105000
     21 C31         -4.6310     3.8840    -0.0070 c5         1 7H8      -0.163400
     22 O7           0.4000    -3.0300    -1.8670 o          1 7H8      -0.568100
     23 N8           2.1000    -2.0580    -0.6660 n          1 7H8      -0.212400
     24 C9           3.0390    -3.1370    -1.0680 c5         1 7H8       0.094000
     25 N14          5.0190    -0.5360     0.7460 nb         1 7H8      -0.616000
     26 C18          1.9780     3.2670     0.3770 ca         1 7H8      -0.085300
     27 C20          1.6490     4.2910    -1.8140 ca         1 7H8      -0.111000
     28 N28         -3.5220     1.8620    -0.0740 n          1 7H8      -0.442800
     29 C29         -3.8410     2.0770     1.3580 c5         1 7H8       0.091000
     30 C30         -4.0600     3.6210     1.4110 c5         1 7H8      -0.091400
     31 C32         -3.7790     2.9740    -0.8790 c          1 7H8       0.556000
     32 O33         -3.2280     3.2120    -1.9440 o          1 7H8      -0.532000
     33 C34         -4.1910    -1.0520     0.1130 c6         1 7H8       0.098600
     34 N35         -4.3290    -2.4340     0.8150 ny         1 7H8      -0.821000
     35 H37         -4.5840    -5.1110     1.2210 hc         1 7H8       0.077700
     36 H38         -2.8940    -5.5680     0.9840 hc         1 7H8       0.077700
     37 H36         -3.3350    -4.4960     2.3210 hc         1 7H8       0.077700
     38 H39         -3.6120    -3.7900    -0.6850 hx         1 7H8       0.126700
     39 H41         -1.6330    -2.7820     1.4580 h1         1 7H8       0.077700
     40 H40         -1.2250    -3.7030     0.0130 h1         1 7H8       0.077700
     41 H43         -0.2280    -0.2870    -1.0040 h1         1 7H8       0.073700
     42 H42          0.0270    -1.0060     0.5970 h1         1 7H8       0.073700
     43 H46          4.7830    -4.7490     0.5660 hc         1 7H8       0.048200
     44 H47          5.5450    -3.4140     1.4480 hc         1 7H8       0.048200
     45 H48          3.8040    -3.6900     1.5930 hc         1 7H8       0.048200
     46 H51          5.4930    -2.1600    -2.1190 hc         1 7H8       0.048200
     47 H49          6.5420    -2.5470    -0.7490 hc         1 7H8       0.048200
     48 H50          5.7590    -3.8490    -1.6600 hc         1 7H8       0.048200
     49 H52          5.3570     1.3320     1.5900 h4         1 7H8       0.033100
     50 H57         -0.3560     4.9910    -2.2400 ha         1 7H8       0.119000
     51 H58         -1.2650     4.2880    -0.0330 ha         1 7H8       0.114000
     52 H59          0.2070     3.1800     1.6330 ha         1 7H8       0.112500
     53 H60          1.3320     0.6630     0.1650 ha         1 7H8       0.111000
     54 H61         -2.4560    -0.3930     1.2280 h1         1 7H8       0.038700
     55 H62         -1.5930     1.1850    -0.4820 h1         1 7H8       0.088200
     56 H63         -2.8120     0.6180    -1.6350 h1         1 7H8       0.088200
     57 H68         -5.6620     3.5110    -0.0330 hc         1 7H8       0.087200
     58 H69         -4.5980     4.9250    -0.3470 hc         1 7H8       0.087200
     59 H45          3.1710    -3.1330    -2.1580 h1         1 7H8       0.071700
     60 H44          2.6640    -4.1290    -0.7800 h1         1 7H8       0.071700
     61 H56          2.0480     4.5980    -2.7780 ha         1 7H8       0.114000
     62 H65         -4.7540     1.5360     1.6360 h1         1 7H8       0.044200
     63 H64         -3.0270     1.7580     2.0230 h1         1 7H8       0.044200
     64 H66         -3.1110     4.1480     1.5610 hc         1 7H8       0.071200
     65 H67         -4.7390     3.9250     2.2160 hc         1 7H8       0.071200
     66 H70         -4.8710    -0.3460     0.6020 hx         1 7H8       0.114200
     67 H71         -4.5100    -1.1860    -0.9270 hx         1 7H8       0.114200
     68 H73         -5.3080    -2.7790     0.7110 hn         1 7H8       0.496500
     69 H72         -4.2130    -2.2970     1.8400 hn         1 7H8       0.496500
     70 C17          2.8880     2.5700     1.3840 c3         1 7H8       0.014200
     71 H55          3.5340     3.4970    -1.1150 ha         1 7H8       0.112500
     72 H54          2.3970     2.5090     2.3630 hc         1 7H8       0.064200
     73 H53          3.7830     3.1840     1.5430 hc         1 7H8       0.064200
@<TRIPOS>BOND
     1     1     2 1   
     2     1    35 1   
     3     1    36 1   
     4     1    37 1   
     5     2     3 1   
     6     2    34 1   
     7     2    38 1   
     8     3     4 1   
     9     3    39 1   
    10     3    40 1   
    11     4     5 1   
    12     4    19 1   
    13     5     6 1   
    14     5    41 1   
    15     5    42 1   
    16     6    22 2   
    17     6    23 1   
    18     7     8 1   
    19     7     9 1   
    20     7    10 1   
    21     7    24 1   
    22     8    43 1   
    23     8    44 1   
    24     8    45 1   
    25     9    46 1   
    26     9    47 1   
    27     9    48 1   
    28    10    18 ar  
    29    10    25 ar  
    30    11    12 ar  
    31    11    25 ar  
    32    11    49 1   
    33    12    17 ar  
    34    12    70 1   
    35    13    26 ar  
    36    13    27 ar  
    37    13    71 1   
    38    14    15 ar  
    39    14    27 ar  
    40    14    50 1   
    41    15    16 ar  
    42    15    51 1   
    43    16    26 ar  
    44    16    52 1   
    45    17    18 ar  
    46    17    53 1   
    47    18    23 1   
    48    19    20 1   
    49    19    33 1   
    50    19    54 1   
    51    20    28 1   
    52    20    55 1   
    53    20    56 1   
    54    21    30 1   
    55    21    31 1   
    56    21    57 1   
    57    21    58 1   
    58    23    24 1   
    59    24    59 1   
    60    24    60 1   
    61    26    70 1   
    62    27    61 1   
    63    28    29 1   
    64    28    31 1   
    65    29    30 1   
    66    29    62 1   
    67    29    63 1   
    68    30    64 1   
    69    30    65 1   
    70    31    32 2   
    71    33    34 1   
    72    33    66 1   
    73    33    67 1   
    74    34    68 1   
    75    34    69 1   
    76    70    72 1   
    77    70    73 1   
@<TRIPOS>SUBSTRUCTURE
     1 7H8         1 TEMP              0 ****  ****    0 ROOT
