@<TRIPOS>MOLECULE
7H9
   78    82     1     0     0
SMALL
bcc


@<TRIPOS>ATOM
      1 C1           3.0680    -4.8980    -2.5920 c3         1 7H9      -0.133100
      2 C2           2.7590    -4.0810    -1.3570 c6         1 7H9       0.139500
      3 C3           2.1660    -2.7190    -1.6710 c6         1 7H9       0.160800
      4 N4           1.9330    -1.9760    -0.4520 n3         1 7H9      -0.765600
      5 C5           0.9080    -0.9750    -0.5210 c3         1 7H9       0.132800
      6 C6           1.2400     0.2620    -1.3380 c          1 7H9       0.664100
      7 C10         -0.3340     3.5850    -1.7110 c5         1 7H9      -0.107300
      8 C11          0.3830     4.6890    -0.9300 c3         1 7H9      -0.081100
      9 C12         -1.0890     4.1920    -2.8910 c3         1 7H9      -0.081100
     10 C13         -1.2580     2.8210    -0.8010 ca         1 7H9       0.384600
     11 C15         -3.0530     2.5210     0.5440 ca         1 7H9       0.387200
     12 C16         -2.7260     1.1960     0.7820 ca         1 7H9      -0.167600
     13 C19         -4.9970    -0.9510     0.0660 ca         1 7H9      -0.099000
     14 C21         -4.7390    -3.2980    -0.2360 ca         1 7H9       0.139900
     15 C23         -3.7430    -3.3420     0.7170 ca         1 7H9      -0.168500
     16 C24         -3.3790    -2.1590     1.3490 ca         1 7H9      -0.099000
     17 C25         -1.5870     0.6680     0.1710 ca         1 7H9      -0.136000
     18 C26         -0.8170     1.5060    -0.6150 ca         1 7H9      -0.052700
     19 C27          3.1720    -1.6800     0.2510 c6         1 7H9       0.192500
     20 C28          2.9710    -0.9070     1.5550 c3         1 7H9       0.165800
     21 C31          3.5110     2.6830     0.6660 c6         1 7H9       0.129400
     22 C35          0.8890     0.5100     3.1440 c3         1 7H9      -0.097100
     23 C36          3.8170    -3.0070     0.6290 c6         1 7H9       0.115800
     24 O7           2.2420     0.3180    -2.0300 o          1 7H9      -0.618100
     25 N8           0.3640     1.3080    -1.3280 n          1 7H9      -0.363000
     26 C9           0.6430     2.4830    -2.1710 c5         1 7H9       0.093000
     27 N14         -2.3350     3.3210    -0.2470 nb         1 7H9      -0.617000
     28 C18         -3.9940    -0.9520     1.0340 ca         1 7H9      -0.101300
     29 C20         -5.3790    -2.1190    -0.5750 ca         1 7H9      -0.168500
     30 N29          2.6720     0.5020     1.3810 n3         1 7H9      -0.719600
     31 C30          3.8440     1.2290     0.9140 c6         1 7H9       0.116800
     32 O32          3.0010     3.3020     1.8230 os         1 7H9      -0.385600
     33 C33          1.8820     2.6020     2.3080 c6         1 7H9       0.128400
     34 C34          2.1680     1.1340     2.6040 c6         1 7H9       0.140500
     35 N37          4.0150    -3.8550    -0.5750 ny         1 7H9      -0.764000
     36 H39          3.5210    -5.8550    -2.3350 hc         1 7H9       0.078367
     37 H40          2.1410    -5.1020    -3.1270 hc         1 7H9       0.078367
     38 H38          3.7380    -4.3660    -3.2690 hc         1 7H9       0.078367
     39 H41          2.0940    -4.6270    -0.6870 hx         1 7H9       0.109700
     40 H43          2.8270    -2.1960    -2.3770 h1         1 7H9       0.084200
     41 H42          1.2150    -2.8830    -2.1800 h1         1 7H9       0.084200
     42 H44          0.0190    -1.4420    -0.9620 h1         1 7H9       0.091700
     43 H45          0.6290    -0.6780     0.4860 h1         1 7H9       0.091700
     44 H48          1.0610     5.2390    -1.5840 hc         1 7H9       0.048533
     45 H49         -0.3370     5.3960    -0.5160 hc         1 7H9       0.048533
     46 H50          0.9700     4.2890    -0.1020 hc         1 7H9       0.048533
     47 H53         -1.6180     3.4290    -3.4620 hc         1 7H9       0.048533
     48 H51         -1.8200     4.9240    -2.5460 hc         1 7H9       0.048533
     49 H52         -0.3970     4.7000    -3.5650 hc         1 7H9       0.048533
     50 H54         -3.9350     2.9550     1.0020 h4         1 7H9       0.032100
     51 H57         -5.4900    -0.0220    -0.1960 ha         1 7H9       0.134500
     52 H59         -3.2590    -4.2770     0.9660 ha         1 7H9       0.152500
     53 H60         -2.6010    -2.1860     2.1030 ha         1 7H9       0.134500
     54 H61         -1.3620    -0.3770     0.3200 ha         1 7H9       0.136000
     55 H62          3.8800    -1.1470    -0.4020 h1         1 7H9       0.066700
     56 H64          2.1540    -1.3920     2.0900 h1         1 7H9       0.048200
     57 H63          3.8690    -1.0410     2.1810 h1         1 7H9       0.048200
     58 H67          4.4070     3.2280     0.3670 h1         1 7H9       0.060200
     59 H68          2.7860     2.7520    -0.1570 h1         1 7H9       0.060200
     60 H73          0.0970     0.5070     2.3930 hc         1 7H9       0.044367
     61 H74          1.0230    -0.5100     3.5010 hc         1 7H9       0.044367
     62 H72          0.5330     1.0930     3.9940 hc         1 7H9       0.044367
     63 H75          4.7960    -2.8600     1.0790 hx         1 7H9       0.101700
     64 H76          3.1830    -3.5690     1.3150 hx         1 7H9       0.101700
     65 H47          0.4830     2.2190    -3.2190 h1         1 7H9       0.068200
     66 H46          1.6830     2.7870    -2.0660 h1         1 7H9       0.068200
     67 H58         -6.1600    -2.1150    -1.3230 ha         1 7H9       0.152500
     68 H66          4.1990     0.8030    -0.0250 h1         1 7H9       0.044200
     69 H65          4.6730     1.1570     1.6390 h1         1 7H9       0.044200
     70 H70          1.5600     3.1040     3.2210 h1         1 7H9       0.060700
     71 H69          1.0510     2.6530     1.5850 h1         1 7H9       0.060700
     72 H71          2.9360     1.0850     3.3980 h1         1 7H9       0.043700
     73 H78          4.4140    -4.7520    -0.2920 hn         1 7H9       0.443300
     74 H77          4.7200    -3.4240    -1.1780 hn         1 7H9       0.443300
     75 C17         -3.5660     0.3350     1.6900 c3         1 7H9       0.018200
     76 F22         -5.1000    -4.4350    -0.8550 f          1 7H9      -0.138900
     77 H55         -2.9980     0.1070     2.5960 hc         1 7H9       0.063200
     78 H56         -4.4420     0.9010     2.0130 hc         1 7H9       0.063200
@<TRIPOS>BOND
     1     1     2 1   
     2     1    36 1   
     3     1    37 1   
     4     1    38 1   
     5     2     3 1   
     6     2    35 1   
     7     2    39 1   
     8     3     4 1   
     9     3    40 1   
    10     3    41 1   
    11     4     5 1   
    12     4    19 1   
    13     5     6 1   
    14     5    42 1   
    15     5    43 1   
    16     6    24 2   
    17     6    25 1   
    18     7     8 1   
    19     7     9 1   
    20     7    10 1   
    21     7    26 1   
    22     8    44 1   
    23     8    45 1   
    24     8    46 1   
    25     9    47 1   
    26     9    48 1   
    27     9    49 1   
    28    10    18 ar  
    29    10    27 ar  
    30    11    12 ar  
    31    11    27 ar  
    32    11    50 1   
    33    12    17 ar  
    34    12    75 1   
    35    13    28 ar  
    36    13    29 ar  
    37    13    51 1   
    38    14    15 ar  
    39    14    29 ar  
    40    14    76 1   
    41    15    16 ar  
    42    15    52 1   
    43    16    28 ar  
    44    16    53 1   
    45    17    18 ar  
    46    17    54 1   
    47    18    25 1   
    48    19    20 1   
    49    19    23 1   
    50    19    55 1   
    51    20    30 1   
    52    20    56 1   
    53    20    57 1   
    54    21    31 1   
    55    21    32 1   
    56    21    58 1   
    57    21    59 1   
    58    22    34 1   
    59    22    60 1   
    60    22    61 1   
    61    22    62 1   
    62    23    35 1   
    63    23    63 1   
    64    23    64 1   
    65    25    26 1   
    66    26    65 1   
    67    26    66 1   
    68    28    75 1   
    69    29    67 1   
    70    30    31 1   
    71    30    34 1   
    72    31    68 1   
    73    31    69 1   
    74    32    33 1   
    75    33    34 1   
    76    33    70 1   
    77    33    71 1   
    78    34    72 1   
    79    35    73 1   
    80    35    74 1   
    81    75    77 1   
    82    75    78 1   
@<TRIPOS>SUBSTRUCTURE
     1 7H9         1 TEMP              0 ****  ****    0 ROOT
