@<TRIPOS>MOLECULE
7H9
   78    82     1     0     0
SMALL
No Charge or Current Charge


@<TRIPOS>ATOM
      1 C1           3.4050    -4.9890    -2.7090 c3         1 7H9      -0.133100
      2 C2           2.9980    -4.2770    -1.3990 c6         1 7H9       0.111300
      3 C3           2.1440    -2.9950    -1.6260 c6         1 7H9       0.160800
      4 N4           1.9270    -2.2130    -0.3610 n3         1 7H9      -0.765600
      5 C5           0.9040    -1.1110    -0.5280 c3         1 7H9       0.132800
      6 C6           1.1980     0.1270    -1.4350 c          1 7H9       0.597100
      7 C10         -0.3260     3.5820    -1.7770 c5         1 7H9      -0.107300
      8 C11          0.3740     4.7660    -1.0570 c3         1 7H9      -0.081100
      9 C12         -1.1010     4.1400    -2.9990 c3         1 7H9      -0.081100
     10 C13         -1.2440     2.8210    -0.8220 ca         1 7H9       0.319300
     11 C15         -3.0580     2.5710     0.5860 ca         1 7H9       0.321900
     12 C16         -2.7330     1.2210     0.8430 ca         1 7H9      -0.102300
     13 C19         -5.1960    -0.7170     0.1320 ca         1 7H9      -0.081000
     14 C21         -5.1550    -3.1140    -0.2780 ca         1 7H9       0.175000
     15 C23         -4.1090    -3.2590     0.6450 ca         1 7H9      -0.150500
     16 C24         -3.6030    -2.1310     1.3150 ca         1 7H9      -0.081000
     17 C25         -1.5980     0.6650     0.2220 ca         1 7H9      -0.118000
     18 C26         -0.8450     1.5040    -0.6260 ca         1 7H9      -0.080000
     19 C27          3.2290    -1.7690     0.2830 c6         1 7H9       0.192500
     20 C28          3.0460    -0.9470     1.6160 c3         1 7H9       0.165800
     21 C31          3.4070     2.8050     0.7120 c6         1 7H9       0.152600
     22 C35          0.8940     0.4330     3.3220 c3         1 7H9      -0.097100
     23 C36          4.1430    -2.9950     0.5950 c6         1 7H9       0.087600
     24 O7           2.1460     0.1230    -2.2210 o          1 7H9      -0.618100
     25 N8           0.3600     1.2810    -1.3590 n          1 7H9      -0.203400
     26 C9           0.7080     2.4510    -2.2090 c5         1 7H9       0.093000
     27 N14         -2.3330     3.3660    -0.2340 nb         1 7H9      -0.617000
     28 C18         -4.1460    -0.8550     1.0620 ca         1 7H9      -0.101300
     29 C20         -5.7010    -1.8470    -0.5370 ca         1 7H9      -0.150500
     30 N29          2.6670     0.4980     1.4740 n3         1 7H9      -0.719600
     31 C30          3.7860     1.3100     0.8900 c6         1 7H9       0.116800
     32 O32          2.9480     3.3560     1.9640 os         1 7H9      -0.432000
     33 C33          1.8040     2.6460     2.4890 c6         1 7H9       0.151600
     34 C34          2.1490     1.1410     2.7350 c6         1 7H9       0.140500
     35 N37          4.3070    -3.8740    -0.6840 ny         1 7H9      -0.818000
     36 H39          4.0190    -5.8740    -2.5060 hc         1 7H9       0.078367
     37 H40          2.5180    -5.3260    -3.2590 hc         1 7H9       0.078367
     38 H38          3.9740    -4.3260    -3.3720 hc         1 7H9       0.078367
     39 H41          2.4720    -4.9790    -0.7420 hx         1 7H9       0.109700
     40 H43          2.6460    -2.3750    -2.3820 h1         1 7H9       0.084200
     41 H42          1.1800    -3.3020    -2.0600 h1         1 7H9       0.084200
     42 H44         -0.0310    -1.5400    -0.9100 h1         1 7H9       0.091700
     43 H45          0.6750    -0.7040     0.4610 h1         1 7H9       0.091700
     44 H48          1.1170     5.2450    -1.7050 hc         1 7H9       0.048533
     45 H49         -0.3500     5.5340    -0.7560 hc         1 7H9       0.048533
     46 H50          0.8880     4.4320    -0.1490 hc         1 7H9       0.048533
     47 H53         -1.6350     3.3410    -3.5280 hc         1 7H9       0.048533
     48 H51         -1.8450     4.8870    -2.6970 hc         1 7H9       0.048533
     49 H52         -0.4230     4.6170    -3.7180 hc         1 7H9       0.048533
     50 H54         -3.9310     3.0310     1.0500 h4         1 7H9       0.032100
     51 H57         -5.6180     0.2640    -0.0740 ha         1 7H9       0.116500
     52 H59         -3.6910    -4.2440     0.8390 ha         1 7H9       0.134500
     53 H60         -2.7890    -2.2500     2.0270 ha         1 7H9       0.116500
     54 H61         -1.3670    -0.3760     0.4030 ha         1 7H9       0.118000
     55 H62          3.7870    -1.1410    -0.4240 h1         1 7H9       0.066700
     56 H64          2.2990    -1.4970     2.2000 h1         1 7H9       0.048200
     57 H63          3.9840    -1.0060     2.1850 h1         1 7H9       0.048200
     58 H67          4.2780     3.3760     0.3630 h1         1 7H9       0.060200
     59 H68          2.6120     2.8980    -0.0380 h1         1 7H9       0.060200
     60 H73          0.1070     0.3230     2.5680 hc         1 7H9       0.044367
     61 H74          1.1280    -0.5600     3.7200 hc         1 7H9       0.044367
     62 H72          0.4740     1.0090     4.1550 hc         1 7H9       0.044367
     63 H75          5.1410    -2.6920     0.9320 hx         1 7H9       0.101700
     64 H76          3.6860    -3.6310     1.3600 hx         1 7H9       0.101700
     65 H47          0.5950     2.1900    -3.2700 h1         1 7H9       0.068200
     66 H46          1.7480     2.7670    -2.0590 h1         1 7H9       0.068200
     67 H58         -6.5100    -1.7420    -1.2540 ha         1 7H9       0.134500
     68 H66          4.0810     0.9220    -0.0940 h1         1 7H9       0.044200
     69 H65          4.6740     1.2530     1.5360 h1         1 7H9       0.044200
     70 H70          1.4980     3.1200     3.4330 h1         1 7H9       0.060700
     71 H69          0.9680     2.7290     1.7800 h1         1 7H9       0.060700
     72 H71          2.9310     1.1060     3.5080 h1         1 7H9       0.043700
     73 H78          4.8530    -4.7300    -0.4480 hn         1 7H9       0.498500
     74 H77          4.9120    -3.3640    -1.3600 hn         1 7H9       0.498500
     75 C17         -3.5930     0.3750     1.7730 c3         1 7H9       0.018200
     76 F22         -5.6400    -4.1980    -0.9210 f          1 7H9      -0.174000
     77 H55         -3.0000     0.0770     2.6460 hc         1 7H9       0.063200
     78 H56         -4.4240     0.9690     2.1730 hc         1 7H9       0.063200
@<TRIPOS>BOND
     1     1     2 1   
     2     1    36 1   
     3     1    37 1   
     4     1    38 1   
     5     2     3 1   
     6     2    35 1   
     7     2    39 1   
     8     3     4 1   
     9     3    40 1   
    10     3    41 1   
    11     4     5 1   
    12     4    19 1   
    13     5     6 1   
    14     5    42 1   
    15     5    43 1   
    16     6    24 2   
    17     6    25 1   
    18     7     8 1   
    19     7     9 1   
    20     7    10 1   
    21     7    26 1   
    22     8    44 1   
    23     8    45 1   
    24     8    46 1   
    25     9    47 1   
    26     9    48 1   
    27     9    49 1   
    28    10    18 ar  
    29    10    27 ar  
    30    11    12 ar  
    31    11    27 ar  
    32    11    50 1   
    33    12    17 ar  
    34    12    75 1   
    35    13    28 ar  
    36    13    29 ar  
    37    13    51 1   
    38    14    15 ar  
    39    14    29 ar  
    40    14    76 1   
    41    15    16 ar  
    42    15    52 1   
    43    16    28 ar  
    44    16    53 1   
    45    17    18 ar  
    46    17    54 1   
    47    18    25 1   
    48    19    20 1   
    49    19    23 1   
    50    19    55 1   
    51    20    30 1   
    52    20    56 1   
    53    20    57 1   
    54    21    31 1   
    55    21    32 1   
    56    21    58 1   
    57    21    59 1   
    58    22    34 1   
    59    22    60 1   
    60    22    61 1   
    61    22    62 1   
    62    23    35 1   
    63    23    63 1   
    64    23    64 1   
    65    25    26 1   
    66    26    65 1   
    67    26    66 1   
    68    28    75 1   
    69    29    67 1   
    70    30    31 1   
    71    30    34 1   
    72    31    68 1   
    73    31    69 1   
    74    32    33 1   
    75    33    34 1   
    76    33    70 1   
    77    33    71 1   
    78    34    72 1   
    79    35    73 1   
    80    35    74 1   
    81    75    77 1   
    82    75    78 1   
@<TRIPOS>SUBSTRUCTURE
     1 7H9         1 TEMP              0 ****  ****    0 ROOT
