@<TRIPOS>MOLECULE
7HA
   51    53     1     0     0
SMALL
No Charge or Current Charge


@<TRIPOS>ATOM
      1 C1          -1.3840    -0.6710    -2.6340 c3         1 7HA      -0.119400
      2 C2          -2.3590    -0.7850    -1.4950 cc         1 7HA       0.137300
      3 C3          -2.2260    -1.3030    -0.2310 cd         1 7HA       0.238300
      4 N4          -3.4310    -1.1690     0.4350 nd         1 7HA      -0.645000
      5 C5          -4.2160    -0.5780    -0.4540 cc         1 7HA       0.488500
      6 O6          -3.6220    -0.3170    -1.6550 os         1 7HA      -0.262000
      7 C7          -5.6220    -0.1970    -0.2600 ca         1 7HA      -0.121500
      8 C8          -6.3530     0.4300    -1.2960 ca         1 7HA      -0.066500
      9 C9          -7.6990     0.7910    -1.1020 ca         1 7HA      -0.113000
     10 C10         -8.3280     0.5300     0.1240 ca         1 7HA       0.130000
     11 C11         -7.6150    -0.0920     1.1600 ca         1 7HA      -0.113000
     12 C12         -6.2690    -0.4540     0.9700 ca         1 7HA      -0.066500
     13 Cl13       -10.0110     0.9820     0.3630 cl         1 7HA      -0.206000
     14 C14         -1.0030    -1.9350     0.3910 c3         1 7HA       0.149300
     15 O15          0.0700    -0.9730     0.4170 os         1 7HA      -0.337100
     16 C16          1.3220    -1.2800     0.9050 ca         1 7HA       0.128100
     17 C17          1.6410    -2.5500     1.4310 ca         1 7HA      -0.214000
     18 C18          2.9370    -2.8040     1.9110 ca         1 7HA      -0.088000
     19 C19          3.9150    -1.7970     1.8680 ca         1 7HA      -0.122000
     20 C20          3.6050    -0.5270     1.3460 ca         1 7HA      -0.036300
     21 C21          2.3050    -0.2780     0.8660 ca         1 7HA      -0.135000
     22 C22          4.6680     0.5640     1.2950 c3         1 7HA       0.141300
     23 N23          5.5020     0.5100     0.0740 n          1 7HA      -0.353800
     24 C24          5.0010     1.2320    -1.1360 c3         1 7HA      -0.058000
     25 C25          5.7660     2.5330    -1.4970 c          1 7HA       0.707000
     26 O26          6.0290     3.3230    -0.6010 o          1 7HA      -0.727500
     27 O27          6.0570     2.7270    -2.6690 o          1 7HA      -0.727500
     28 C28          6.7370    -0.1740     0.0810 c          1 7HA       0.652100
     29 O29          7.1850    -0.7520     1.0630 o          1 7HA      -0.597000
     30 O30          7.3640    -0.1280    -1.1350 os         1 7HA      -0.422100
     31 C31          8.6310    -0.7930    -1.2660 c3         1 7HA       0.175900
     32 H1          -0.9000    -1.6350    -2.8290 hc         1 7HA       0.060033
     33 H1A         -1.8860    -0.3510    -3.5550 hc         1 7HA       0.060033
     34 H1B         -0.6020     0.0610    -2.4010 hc         1 7HA       0.060033
     35 H8          -5.8850     0.6420    -2.2550 ha         1 7HA       0.138000
     36 H9          -8.2530     1.2730    -1.9030 ha         1 7HA       0.130500
     37 H11         -8.1040    -0.2930     2.1090 ha         1 7HA       0.130500
     38 H12         -5.7310    -0.9360     1.7850 ha         1 7HA       0.138000
     39 H14         -1.2450    -2.2700     1.4080 h1         1 7HA       0.043200
     40 H14A        -0.7200    -2.8120    -0.2050 h1         1 7HA       0.043200
     41 H17          0.9040    -3.3470     1.4760 ha         1 7HA       0.100000
     42 H18          3.1850    -3.7830     2.3160 ha         1 7HA       0.099000
     43 H19          4.9160    -2.0040     2.2400 ha         1 7HA       0.127000
     44 H21          2.0520     0.6980     0.4580 ha         1 7HA       0.132000
     45 H22          4.1800     1.5470     1.3470 h1         1 7HA       0.072700
     46 H22A         5.3070     0.4890     2.1840 h1         1 7HA       0.072700
     47 H24          5.0420     0.5530    -1.9970 h1         1 7HA       0.040700
     48 H24A         3.9490     1.5040    -0.9890 h1         1 7HA       0.040700
     49 H31          9.0180    -0.6770    -2.2860 h1         1 7HA       0.032033
     50 H31A         9.3680    -0.3700    -0.5710 h1         1 7HA       0.032033
     51 H31B         8.5320    -1.8670    -1.0600 h1         1 7HA       0.032033
@<TRIPOS>BOND
     1     1     2 1   
     2     1    32 1   
     3     1    33 1   
     4     1    34 1   
     5     2     3 2   
     6     2     6 1   
     7     3     4 1   
     8     3    14 1   
     9     4     5 2   
    10     5     6 1   
    11     5     7 1   
    12     7     8 ar  
    13     7    12 ar  
    14     8     9 ar  
    15     8    35 1   
    16     9    10 ar  
    17     9    36 1   
    18    10    11 ar  
    19    10    13 1   
    20    11    12 ar  
    21    11    37 1   
    22    12    38 1   
    23    14    15 1   
    24    14    39 1   
    25    14    40 1   
    26    15    16 1   
    27    16    17 ar  
    28    16    21 ar  
    29    17    18 ar  
    30    17    41 1   
    31    18    19 ar  
    32    18    42 1   
    33    19    20 ar  
    34    19    43 1   
    35    20    21 ar  
    36    20    22 1   
    37    21    44 1   
    38    22    23 1   
    39    22    45 1   
    40    22    46 1   
    41    23    24 1   
    42    23    28 1   
    43    24    25 1   
    44    24    47 1   
    45    24    48 1   
    46    25    26 1   
    47    25    27 1   
    48    28    29 2   
    49    28    30 1   
    50    30    31 1   
    51    31    49 1   
    52    31    50 1   
    53    31    51 1   
@<TRIPOS>SUBSTRUCTURE
     1 7HA         1 TEMP              0 ****  ****    0 ROOT
