@<TRIPOS>MOLECULE
7HA
   51    53     1     0     0
SMALL
bcc


@<TRIPOS>ATOM
      1 C1          -2.8360    -1.9730    -3.5270 c3         1 7HA      -0.119400
      2 C2          -3.0700    -1.5530    -2.1310 cc         1 7HA       0.181700
      3 C3          -2.3770    -1.6610    -0.9720 cd         1 7HA       0.238300
      4 N4          -3.0990    -1.0710     0.0420 nd         1 7HA      -0.645000
      5 C5          -4.1750    -0.6390    -0.5210 cc         1 7HA       0.532900
      6 O6          -4.2220    -0.9000    -1.8360 os         1 7HA      -0.350800
      7 C7          -5.2860     0.0670     0.0980 ca         1 7HA      -0.121500
      8 C8          -6.3880     0.4910    -0.6430 ca         1 7HA      -0.084500
      9 C9          -7.4330     1.1610    -0.0280 ca         1 7HA      -0.131000
     10 C10         -7.3740     1.4060     1.3350 ca         1 7HA       0.038400
     11 C11         -6.2850     0.9930     2.0910 ca         1 7HA      -0.131000
     12 C12         -5.2470     0.3250     1.4690 ca         1 7HA      -0.084500
     13 CL13        -8.6780     2.2390     2.1080 cl         1 7HA      -0.114400
     14 C14         -1.0560    -2.2870    -0.7270 c3         1 7HA       0.126100
     15 O15         -0.1270    -1.2450    -0.4680 os         1 7HA      -0.313900
     16 C16          1.1320    -1.5810    -0.1170 ca         1 7HA       0.128100
     17 C17          1.6080    -2.8850    -0.0390 ca         1 7HA      -0.232000
     18 C18          2.9320    -3.1020     0.3330 ca         1 7HA      -0.106000
     19 C19          3.7780    -2.0480     0.6260 ca         1 7HA      -0.140000
     20 C20          3.3020    -0.7380     0.5460 ca         1 7HA      -0.036300
     21 C21          1.9880    -0.5140     0.1700 ca         1 7HA      -0.153000
     22 C22          4.1880     0.4290     0.9020 c3         1 7HA       0.141300
     23 N23          5.5110     0.3120     0.3290 n          1 7HA      -0.420800
     24 C24          5.6010     0.5340    -1.0990 c3         1 7HA      -0.058000
     25 C25          5.8080     2.0150    -1.4890 c          1 7HA       0.917600
     26 O26          5.8190     2.8540    -0.5720 o          1 7HA      -0.832800
     27 O27          5.9320     2.2200    -2.7120 o          1 7HA      -0.832800
     28 C28          6.5890     0.4840     1.1250 c          1 7HA       0.768100
     29 O29          6.5630     0.5640     2.3400 o          1 7HA      -0.646000
     30 O30          7.7240     0.5070     0.4230 os         1 7HA      -0.398900
     31 C31          8.9290     0.6770     1.1560 c3         1 7HA       0.152700
     32 H1          -3.5890    -2.6880    -3.8620 hc         1 7HA       0.060033
     33 H1A         -2.8560    -1.1210    -4.2070 hc         1 7HA       0.060033
     34 H1B         -1.8610    -2.4490    -3.6150 hc         1 7HA       0.060033
     35 H8          -6.4490     0.3050    -1.7070 ha         1 7HA       0.156000
     36 H9          -8.2830     1.4880    -0.6090 ha         1 7HA       0.148500
     37 H11         -6.2460     1.1880     3.1540 ha         1 7HA       0.148500
     38 H12         -4.3980     0.0000     2.0550 ha         1 7HA       0.156000
     39 H14         -1.1210    -2.9640     0.1310 h1         1 7HA       0.043200
     40 H14A        -0.7460    -2.8790    -1.5940 h1         1 7HA       0.043200
     41 H17          0.9790    -3.7360    -0.2630 ha         1 7HA       0.118000
     42 H18          3.2970    -4.1190     0.3930 ha         1 7HA       0.117000
     43 H19          4.8050    -2.2380     0.9090 ha         1 7HA       0.145000
     44 H21          1.6100     0.4990     0.0920 ha         1 7HA       0.150000
     45 H22          3.7260     1.3640     0.5720 h1         1 7HA       0.072700
     46 H22A         4.2780     0.4930     1.9860 h1         1 7HA       0.072700
     47 H24          6.3870    -0.0790    -1.5400 h1         1 7HA       0.040700
     48 H24A         4.6700     0.1780    -1.5480 h1         1 7HA       0.040700
     49 H31          9.7280     0.6730     0.4190 h1         1 7HA       0.032033
     50 H31A         8.9460     1.6260     1.6930 h1         1 7HA       0.032033
     51 H31B         9.0940    -0.1350     1.8640 h1         1 7HA       0.032033
@<TRIPOS>BOND
     1     1     2 1   
     2     1    32 1   
     3     1    33 1   
     4     1    34 1   
     5     2     3 2   
     6     2     6 1   
     7     3     4 1   
     8     3    14 1   
     9     4     5 2   
    10     5     6 1   
    11     5     7 1   
    12     7     8 ar  
    13     7    12 ar  
    14     8     9 ar  
    15     8    35 1   
    16     9    10 ar  
    17     9    36 1   
    18    10    11 ar  
    19    10    13 1   
    20    11    12 ar  
    21    11    37 1   
    22    12    38 1   
    23    14    15 1   
    24    14    39 1   
    25    14    40 1   
    26    15    16 1   
    27    16    17 ar  
    28    16    21 ar  
    29    17    18 ar  
    30    17    41 1   
    31    18    19 ar  
    32    18    42 1   
    33    19    20 ar  
    34    19    43 1   
    35    20    21 ar  
    36    20    22 1   
    37    21    44 1   
    38    22    23 1   
    39    22    45 1   
    40    22    46 1   
    41    23    24 1   
    42    23    28 1   
    43    24    25 1   
    44    24    47 1   
    45    24    48 1   
    46    25    26 1   
    47    25    27 1   
    48    28    29 2   
    49    28    30 1   
    50    30    31 1   
    51    31    49 1   
    52    31    50 1   
    53    31    51 1   
@<TRIPOS>SUBSTRUCTURE
     1 7HA         1 TEMP              0 ****  ****    0 ROOT
