@<TRIPOS>MOLECULE
7HC
   72    76     1     0     0
SMALL
abcg2


@<TRIPOS>ATOM
      1 O3           2.3250    -0.4790     2.4950 o          1 7HC      -0.539000
      2 C9          -4.2010    -1.0220     0.3200 c6         1 7HC       0.112700
      3 C8          -2.2140     0.1840     1.1460 c          1 7HC       0.604100
      4 O1          -2.6830     1.2940     0.9550 o          1 7HC      -0.581100
      5 C12         -6.8270    -2.3350     0.0350 c6         1 7HC       0.169300
      6 C13         -6.6700    -1.0230     0.7960 c6         1 7HC      -0.090900
      7 C11         -5.7660    -2.4450    -1.0490 c6         1 7HC      -0.090900
      8 C10         -4.3650    -2.3230    -0.4610 c6         1 7HC      -0.089900
      9 N1          -0.3080     1.1150     2.3950 n7         1 7HC      -0.817400
     10 C14         -5.2750    -0.9050     1.4010 c6         1 7HC      -0.089900
     11 C15          0.1200    -0.1180     0.3530 c5         1 7HC      -0.013400
     12 O2          -8.0940    -2.4510    -0.5810 oh         1 7HC      -0.658000
     13 C7          -0.7800    -0.0160     1.6250 c5         1 7HC       0.092500
     14 C5           1.5060     2.8330     2.2920 c3         1 7HC      -0.070400
     15 C4           0.2040     3.5410     4.3590 c3         1 7HC      -0.088433
     16 C2           0.8500     4.0050     3.0520 c3         1 7HC      -0.034000
     17 C1           1.9660     4.9980     3.3910 c3         1 7HC      -0.088433
     18 C25          4.3060     1.3960    -1.3700 ca         1 7HC      -0.142000
     19 C26          3.8290     2.1410    -2.4430 ca         1 7HC       0.156000
     20 C24          3.3760     1.0210    -0.4200 ca         1 7HC      -0.019000
     21 N2          -2.8620    -0.9580     0.8730 ns         1 7HC      -0.508900
     22 C23          2.4260     0.1170     1.4430 c          1 7HC       0.576000
     23 C22          1.3080     0.8170     0.6710 c5         1 7HC      -0.126700
     24 C21          0.6300    -1.7550    -1.4690 ca         1 7HC       0.189000
     25 C19          1.1930    -4.0530    -1.0820 ca         1 7HC      -0.073000
     26 C20          0.9800    -3.0030    -1.9580 ca         1 7HC       0.066000
     27 C18          1.0480    -3.8300     0.2780 ca         1 7HC      -0.120000
     28 C16          0.4830    -1.5030    -0.1110 ca         1 7HC      -0.115300
     29 C28          1.5860     2.0960    -1.5960 ca         1 7HC      -0.037000
     30 C29          2.0290     1.3590    -0.5200 ca         1 7HC      -0.133300
     31 N3           3.5790     0.2910     0.7400 ns         1 7HC      -0.140000
     32 C17          0.6990    -2.5760     0.7540 ca         1 7HC      -0.079000
     33 C27          2.4960     2.4970    -2.5730 ca         1 7HC      -0.131000
     34 C3          -0.1950     4.7040     2.1830 c3         1 7HC      -0.088433
     35 C6           0.5830     1.8820     1.5510 c5         1 7HC       0.194500
     36 F            0.4200    -0.7740    -2.3510 f          1 7HC      -0.158000
     37 CL1          1.1390    -3.2220    -3.6600 cl         1 7HC      -0.165000
     38 H1          -4.3130    -0.1840    -0.3740 h1         1 7HC       0.077700
     39 H2          -6.6710    -3.1600     0.7480 h1         1 7HC       0.025700
     40 H3          -6.8470    -0.1890     0.1070 hc         1 7HC       0.053700
     41 H4          -7.4230    -0.9510     1.5860 hc         1 7HC       0.053700
     42 H5          -5.8620    -3.3980    -1.5750 hc         1 7HC       0.053700
     43 H6          -5.9250    -1.6530    -1.7880 hc         1 7HC       0.053700
     44 H7          -3.6180    -2.3760    -1.2560 hc         1 7HC       0.048200
     45 H8          -4.1770    -3.1690     0.2100 hc         1 7HC       0.048200
     46 H9           0.1970     0.7780     3.2040 hn         1 7HC       0.430000
     47 H11         -5.1210    -1.6970     2.1420 hc         1 7HC       0.048200
     48 H12         -5.1710     0.0470     1.9260 hc         1 7HC       0.048200
     49 H13         -0.4120     0.3780    -0.4630 hc         1 7HC       0.088700
     50 H14         -8.7680    -2.3780     0.1020 ho         1 7HC       0.443000
     51 H15         -0.7240    -0.9180     2.2360 h1         1 7HC       0.064700
     52 H16          2.1820     3.2660     1.5460 hc         1 7HC       0.046700
     53 H17          2.1380     2.2740     2.9920 hc         1 7HC       0.046700
     54 H18          0.9310     3.0320     4.9970 hc         1 7HC       0.035922
     55 H19         -0.1840     4.3950     4.9190 hc         1 7HC       0.035922
     56 H20         -0.6230     2.8570     4.1790 hc         1 7HC       0.035922
     57 H21          2.4270     5.4020     2.4860 hc         1 7HC       0.035922
     58 H22          1.5810     5.8390     3.9730 hc         1 7HC       0.035922
     59 H23          2.7530     4.5230     3.9820 hc         1 7HC       0.035922
     60 H24          5.3510     1.1290    -1.2870 ha         1 7HC       0.138000
     61 H25         -2.4270    -1.8310     1.1300 hn         1 7HC       0.309500
     62 H26          1.4660    -5.0290    -1.4610 ha         1 7HC       0.135000
     63 H27          1.2080    -4.6430     0.9730 ha         1 7HC       0.126000
     64 H28          0.5430     2.3670    -1.7010 ha         1 7HC       0.131000
     65 H29          4.4720    -0.0700     1.0420 hn         1 7HC       0.177000
     66 H30          0.5970    -2.4380     1.8210 ha         1 7HC       0.131000
     67 H31          2.1630     3.0740    -3.4240 ha         1 7HC       0.136000
     68 H32         -1.0570     4.0630     1.9920 hc         1 7HC       0.035922
     69 H33         -0.5590     5.6080     2.6760 hc         1 7HC       0.035922
     70 H34          0.2250     5.0020     1.2190 hc         1 7HC       0.035922
     71 H35         -0.0260     2.4620     0.8480 h1         1 7HC       0.087700
     72 CL2          4.9560     2.6400    -3.6630 cl         1 7HC      -0.197000
@<TRIPOS>BOND
     1     1    22 2   
     2     2     8 1   
     3     2    10 1   
     4     2    21 1   
     5     2    38 1   
     6     3     4 2   
     7     3    13 1   
     8     3    21 1   
     9     5     6 1   
    10     5     7 1   
    11     5    12 1   
    12     5    39 1   
    13     6    10 1   
    14     6    40 1   
    15     6    41 1   
    16     7     8 1   
    17     7    42 1   
    18     7    43 1   
    19     8    44 1   
    20     8    45 1   
    21     9    13 1   
    22     9    35 1   
    23     9    46 1   
    24    10    47 1   
    25    10    48 1   
    26    11    13 1   
    27    11    23 1   
    28    11    28 1   
    29    11    49 1   
    30    12    50 1   
    31    13    51 1   
    32    14    16 1   
    33    14    35 1   
    34    14    52 1   
    35    14    53 1   
    36    15    16 1   
    37    15    54 1   
    38    15    55 1   
    39    15    56 1   
    40    16    17 1   
    41    16    34 1   
    42    17    57 1   
    43    17    58 1   
    44    17    59 1   
    45    18    19 ar  
    46    18    20 ar  
    47    18    60 1   
    48    19    33 ar  
    49    19    72 1   
    50    20    30 ar  
    51    20    31 1   
    52    21    61 1   
    53    22    23 1   
    54    22    31 1   
    55    23    30 1   
    56    23    35 1   
    57    24    26 ar  
    58    24    28 ar  
    59    24    36 1   
    60    25    26 ar  
    61    25    27 ar  
    62    25    62 1   
    63    26    37 1   
    64    27    32 ar  
    65    27    63 1   
    66    28    32 ar  
    67    29    30 ar  
    68    29    33 ar  
    69    29    64 1   
    70    31    65 1   
    71    32    66 1   
    72    33    67 1   
    73    34    68 1   
    74    34    69 1   
    75    34    70 1   
    76    35    71 1   
@<TRIPOS>SUBSTRUCTURE
     1 7HC         1 TEMP              0 ****  ****    0 ROOT
