@<TRIPOS>MOLECULE
7HC
   72    76     1     0     0
SMALL
No Charge or Current Charge


@<TRIPOS>ATOM
      1 O3           2.8300    -0.5510     2.2960 o          1 7HC      -0.539000
      2 C9          -4.3870    -1.0070     0.2120 c6         1 7HC       0.112700
      3 C8          -2.0640    -0.0390     0.4670 c          1 7HC       0.604100
      4 O1          -2.3340     1.0080    -0.1120 o          1 7HC      -0.581100
      5 C12         -7.2950    -1.6510     0.6370 c6         1 7HC       0.169300
      6 C13         -6.7470    -0.2140     0.8220 c6         1 7HC      -0.090900
      7 C11         -6.4270    -2.4390    -0.3760 c6         1 7HC      -0.090900
      8 C10         -4.9360    -2.4470     0.0470 c6         1 7HC      -0.089900
      9 N1          -0.1730     0.4630     2.1680 n7         1 7HC      -0.817400
     10 C14         -5.2530    -0.2300     1.2380 c6         1 7HC      -0.089900
     11 C15          0.4200    -0.4040    -0.0470 c5         1 7HC      -0.013400
     12 O2          -8.6490    -1.6050     0.1820 oh         1 7HC      -0.658000
     13 C7          -0.6730    -0.4680     1.0900 c5         1 7HC       0.092500
     14 C5           1.3240     2.5050     2.3790 c3         1 7HC      -0.070400
     15 C4          -0.6380     3.1110     3.9370 c3         1 7HC      -0.088433
     16 C2           0.5110     3.6610     3.0510 c3         1 7HC      -0.034000
     17 C1           1.4780     4.4770     3.9510 c3         1 7HC      -0.088433
     18 C25          4.2150     1.9750    -1.5640 ca         1 7HC      -0.142000
     19 C26          3.5890     2.7700    -2.5440 ca         1 7HC       0.156000
     20 C24          3.3950     1.3420    -0.6250 ca         1 7HC      -0.019000
     21 N2          -2.9880    -1.0490     0.6480 ns         1 7HC      -0.508900
     22 C23          2.7150     0.0710     1.2470 c          1 7HC       0.576000
     23 C22          1.4410     0.6470     0.5200 c5         1 7HC      -0.126700
     24 C21          1.6430    -2.0530    -1.5700 ca         1 7HC       0.189000
     25 C19          2.4810    -4.2070    -0.8030 ca         1 7HC      -0.073000
     26 C20          2.3080    -3.2680    -1.8290 ca         1 7HC       0.066000
     27 C18          1.9940    -3.9290     0.4820 ca         1 7HC      -0.120000
     28 C16          1.1360    -1.7560    -0.2800 ca         1 7HC      -0.115300
     29 C28          1.3820     2.2650    -1.5970 ca         1 7HC      -0.037000
     30 C29          2.0210     1.4710    -0.6300 ca         1 7HC      -0.133300
     31 N3           3.7440     0.5290     0.4500 ns         1 7HC      -0.140000
     32 C17          1.3310    -2.7180     0.7440 ca         1 7HC      -0.079000
     33 C27          2.1820     2.9160    -2.5600 ca         1 7HC      -0.131000
     34 C3          -0.0800     4.6140     1.9760 c3         1 7HC      -0.088433
     35 C6           0.5570     1.5260     1.4400 c5         1 7HC       0.194500
     36 F            1.4960    -1.1590    -2.5770 f          1 7HC      -0.158000
     37 Cl1          2.9350    -3.6250    -3.4390 cl         1 7HC      -0.165000
     38 H1          -4.4360    -0.4950    -0.7620 h1         1 7HC       0.077700
     39 H2          -7.2480    -2.1690     1.6070 h1         1 7HC       0.025700
     40 H3          -6.8610     0.3530    -0.1130 hc         1 7HC       0.053700
     41 H4          -7.3340     0.3170     1.5840 hc         1 7HC       0.053700
     42 H5          -6.7940    -3.4720    -0.4560 hc         1 7HC       0.053700
     43 H6          -6.5240    -1.9950    -1.3760 hc         1 7HC       0.053700
     44 H7          -4.3440    -2.9870    -0.7050 hc         1 7HC       0.048200
     45 H8          -4.8250    -3.0020     0.9890 hc         1 7HC       0.048200
     46 H9           0.5140    -0.0370     2.7460 hn         1 7HC       0.430000
     47 H11         -5.1520    -0.6860     2.2330 hc         1 7HC       0.048200
     48 H12         -4.8880     0.8010     1.3310 hc         1 7HC       0.048200
     49 H13         -0.0400    -0.0410    -0.9740 hc         1 7HC       0.088700
     50 H14         -9.1700    -1.1710     0.8930 ho         1 7HC       0.443000
     51 H15         -0.8080    -1.4760     1.4990 h1         1 7HC       0.064700
     52 H16          2.1330     2.9690     1.8000 hc         1 7HC       0.046700
     53 H17          1.8260     1.9300     3.1670 hc         1 7HC       0.046700
     54 H18         -0.2570     2.3880     4.6690 hc         1 7HC       0.035922
     55 H19         -1.1300     3.9220     4.4870 hc         1 7HC       0.035922
     56 H20         -1.4050     2.6130     3.3320 hc         1 7HC       0.035922
     57 H21          2.3020     4.8980     3.3620 hc         1 7HC       0.035922
     58 H22          0.9560     5.3080     4.4400 hc         1 7HC       0.035922
     59 H23          1.9120     3.8450     4.7360 hc         1 7HC       0.035922
     60 H24          5.2950     1.8620    -1.5400 ha         1 7HC       0.138000
     61 H25         -2.6700    -1.8720     1.1450 hn         1 7HC       0.309500
     62 H26          2.9950    -5.1440    -1.0030 ha         1 7HC       0.135000
     63 H27          2.1370    -4.6520     1.2830 ha         1 7HC       0.126000
     64 H28          0.2990     2.3760    -1.6080 ha         1 7HC       0.131000
     65 H29          4.7110     0.3490     0.6830 hn         1 7HC       0.177000
     66 H30          0.9960    -2.5320     1.7610 ha         1 7HC       0.131000
     67 H31          1.7150     3.5350    -3.3210 ha         1 7HC       0.136000
     68 H32         -0.8470     4.1160     1.3720 hc         1 7HC       0.035922
     69 H33         -0.5510     5.4870     2.4460 hc         1 7HC       0.035922
     70 H34          0.7030     4.9780     1.3000 hc         1 7HC       0.035922
     71 H35         -0.1370     2.1150     0.8240 h1         1 7HC       0.087700
     72 Cl2          4.5650     3.5910    -3.7540 cl         1 7HC      -0.197000
@<TRIPOS>BOND
     1     1    22 2   
     2     2     8 1   
     3     2    10 1   
     4     2    21 1   
     5     2    38 1   
     6     3     4 2   
     7     3    13 1   
     8     3    21 1   
     9     5     6 1   
    10     5     7 1   
    11     5    12 1   
    12     5    39 1   
    13     6    10 1   
    14     6    40 1   
    15     6    41 1   
    16     7     8 1   
    17     7    42 1   
    18     7    43 1   
    19     8    44 1   
    20     8    45 1   
    21     9    13 1   
    22     9    35 1   
    23     9    46 1   
    24    10    47 1   
    25    10    48 1   
    26    11    13 1   
    27    11    23 1   
    28    11    28 1   
    29    11    49 1   
    30    12    50 1   
    31    13    51 1   
    32    14    16 1   
    33    14    35 1   
    34    14    52 1   
    35    14    53 1   
    36    15    16 1   
    37    15    54 1   
    38    15    55 1   
    39    15    56 1   
    40    16    17 1   
    41    16    34 1   
    42    17    57 1   
    43    17    58 1   
    44    17    59 1   
    45    18    19 ar  
    46    18    20 ar  
    47    18    60 1   
    48    19    33 ar  
    49    19    72 1   
    50    20    30 ar  
    51    20    31 1   
    52    21    61 1   
    53    22    23 1   
    54    22    31 1   
    55    23    30 1   
    56    23    35 1   
    57    24    26 ar  
    58    24    28 ar  
    59    24    36 1   
    60    25    26 ar  
    61    25    27 ar  
    62    25    62 1   
    63    26    37 1   
    64    27    32 ar  
    65    27    63 1   
    66    28    32 ar  
    67    29    30 ar  
    68    29    33 ar  
    69    29    64 1   
    70    31    65 1   
    71    32    66 1   
    72    33    67 1   
    73    34    68 1   
    74    34    69 1   
    75    34    70 1   
    76    35    71 1   
@<TRIPOS>SUBSTRUCTURE
     1 7HC         1 TEMP              0 ****  ****    0 ROOT
