@<TRIPOS>MOLECULE
7HD
   46    50     1     0     0
SMALL
abcg2


@<TRIPOS>ATOM
      1 C01          6.6470    -3.5220     1.1910 c3         1 7HD      -0.138400
      2 C02          5.7820    -2.4540     0.6440 cc         1 7HD       0.195300
      3 C03          6.0350    -1.3350    -0.0760 cd         1 7HD      -0.249000
      4 C04          4.7540    -0.7600    -0.2630 cd         1 7HD       0.243300
      5 C05          4.4370     0.5080    -0.9860 c3         1 7HD       0.052300
      6 N06          3.0230     0.7750    -1.0410 na         1 7HD       0.133800
      7 C07          2.3030     1.4760    -0.1550 cc         1 7HD      -0.112000
      8 C08          0.9840     1.3820    -0.5530 cd         1 7HD      -0.173000
      9 C09         -0.2080     1.9510     0.0580 ca         1 7HD       0.068000
     10 C10         -0.3200     3.2410     0.5820 ca         1 7HD       0.061000
     11 CL           1.0250     4.3290     0.5440 cl         1 7HD      -0.199000
     12 C12         -1.5160     3.7180     1.1270 ca         1 7HD       0.338900
     13 N13         -2.6300     3.0100     1.1980 nb         1 7HD      -0.604000
     14 C14         -2.5580     1.7770     0.7170 ca         1 7HD       0.479000
     15 N15         -3.5670     0.8610     0.7010 nc         1 7HD      -0.645700
     16 C16         -3.0490    -0.2160     0.1610 cd         1 7HD       0.541400
     17 C17         -3.7480    -1.4540    -0.0590 cd         1 7HD      -0.258900
     18 C18         -3.2680    -2.6000    -0.6680 cc         1 7HD      -0.147000
     19 N19         -4.2620    -3.4890    -0.6480 na         1 7HD       0.143800
     20 C20         -4.2480    -4.8340    -1.1710 c3         1 7HD       0.072900
     21 N21         -5.3640    -3.0080    -0.0700 nc         1 7HD      -0.533800
     22 C22         -5.0820    -1.7750     0.2970 cd         1 7HD       0.323300
     23 C23         -6.0920    -0.9310     0.9900 c3         1 7HD      -0.123400
     24 N24         -1.7400    -0.0460    -0.1870 na         1 7HD      -0.307600
     25 C25         -1.3910     1.2290     0.1560 ca         1 7HD      -0.123200
     26 C26          1.0400     0.5750    -1.7110 cd         1 7HD       0.251900
     27 N27          2.2740     0.2180    -1.9900 nc         1 7HD      -0.511800
     28 N28          3.8260    -1.4780     0.2960 nc         1 7HD      -0.341300
     29 O29          4.4650    -2.5390     0.8650 os         1 7HD      -0.070700
     30 H011         6.5860    -3.5590     2.2800 hc         1 7HD       0.065367
     31 H012         6.3580    -4.5010     0.8080 hc         1 7HD       0.065367
     32 H013         7.6820    -3.3380     0.9130 hc         1 7HD       0.065367
     33 H03          6.9870    -0.9690    -0.4210 ha         1 7HD       0.155000
     34 H051         4.9330     1.3450    -0.4950 h1         1 7HD       0.085200
     35 H052         4.8190     0.4620    -2.0060 h1         1 7HD       0.085200
     36 H07          2.7630     1.9680     0.6850 h4         1 7HD       0.166000
     37 H26          0.2290     0.2810    -2.3620 h4         1 7HD       0.038100
     38 H12         -1.5500     4.7290     1.5150 h4         1 7HD       0.034100
     39 H24         -1.1270    -0.7530    -0.5620 hn         1 7HD       0.363000
     40 H18         -2.3100    -2.8360    -1.1050 h4         1 7HD       0.151000
     41 H201        -4.4820    -5.5440    -0.3800 h1         1 7HD       0.059367
     42 H202        -4.9770    -4.9370    -1.9720 h1         1 7HD       0.059367
     43 H203        -3.2580    -5.0510    -1.5600 h1         1 7HD       0.059367
     44 H231        -6.3060    -0.0220     0.4270 hc         1 7HD       0.059033
     45 H232        -7.0210    -1.4840     1.1180 hc         1 7HD       0.059033
     46 H233        -5.7390    -0.6170     1.9720 hc         1 7HD       0.059033
@<TRIPOS>BOND
     1     1     2 1   
     2     1    30 1   
     3     1    31 1   
     4     1    32 1   
     5     2     3 2   
     6     2    29 1   
     7     3     4 1   
     8     3    33 1   
     9     4     5 1   
    10     4    28 2   
    11     5     6 1   
    12     5    34 1   
    13     5    35 1   
    14     6     7 1   
    15     6    27 1   
    16     7     8 2   
    17     7    36 1   
    18     8     9 1   
    19     8    26 1   
    20     9    10 ar  
    21     9    25 ar  
    22    10    11 1   
    23    10    12 ar  
    24    12    13 ar  
    25    12    38 1   
    26    13    14 ar  
    27    14    15 1   
    28    14    25 ar  
    29    15    16 2   
    30    16    17 1   
    31    16    24 1   
    32    17    18 2   
    33    17    22 1   
    34    18    19 1   
    35    18    40 1   
    36    19    20 1   
    37    19    21 1   
    38    20    41 1   
    39    20    42 1   
    40    20    43 1   
    41    21    22 2   
    42    22    23 1   
    43    23    44 1   
    44    23    45 1   
    45    23    46 1   
    46    24    25 1   
    47    24    39 1   
    48    26    27 2   
    49    26    37 1   
    50    28    29 1   
@<TRIPOS>SUBSTRUCTURE
     1 7HD         1 TEMP              0 ****  ****    0 ROOT
