@<TRIPOS>MOLECULE
7HD
   46    50     1     0     0
SMALL
No Charge or Current Charge


@<TRIPOS>ATOM
      1 C01          6.2870    -2.9300     1.8520 c3         1 7HD      -0.138400
      2 C02          5.9540    -1.7260     1.0220 cc         1 7HD       0.195300
      3 C03          5.1230    -1.5640    -0.0390 cd         1 7HD      -0.249000
      4 C04          5.2130    -0.2100    -0.4040 cd         1 7HD       0.243300
      5 C05          4.4700     0.4650    -1.5250 c3         1 7HD       0.052300
      6 N06          3.0220     0.5630    -1.2940 na         1 7HD       0.133800
      7 C07          2.4040     1.2580    -0.2620 cc         1 7HD      -0.112000
      8 C08          1.0630     1.0280    -0.4420 cd         1 7HD      -0.173000
      9 C09         -0.0740     1.5900     0.3350 ca         1 7HD       0.068000
     10 C10         -0.0070     2.7880     1.1010 ca         1 7HD       0.061000
     11 Cl           1.4210     3.8310     1.1700 cl         1 7HD      -0.199000
     12 C12         -1.1620     3.2230     1.7920 ca         1 7HD       0.338900
     13 N13         -2.3460     2.5670     1.7830 nb         1 7HD      -0.604000
     14 C14         -2.4060     1.4370     1.0690 ca         1 7HD       0.479000
     15 N15         -3.5000     0.6080     0.9480 nc         1 7HD      -0.645700
     16 C16         -3.0410    -0.3840     0.1750 cd         1 7HD       0.541400
     17 C17         -3.8190    -1.5210    -0.2310 cd         1 7HD      -0.258900
     18 C18         -3.3330    -2.5300    -1.0200 cc         1 7HD      -0.147000
     19 N19         -4.4250    -3.3840    -1.1410 na         1 7HD       0.143800
     20 C20         -4.4620    -4.6450    -1.8930 c3         1 7HD       0.072900
     21 N21         -5.5530    -2.9490    -0.4680 nc         1 7HD      -0.533800
     22 C22         -5.1650    -1.8120     0.0810 cd         1 7HD       0.323300
     23 C23         -6.1320    -1.0150     0.9150 c3         1 7HD      -0.123400
     24 N24         -1.7110    -0.2450    -0.2140 na         1 7HD      -0.307600
     25 C25         -1.3320     0.9450     0.3590 ca         1 7HD      -0.123200
     26 C26          0.9720     0.2480    -1.6230 cd         1 7HD       0.251900
     27 N27          2.1420    -0.0580    -2.1470 nc         1 7HD      -0.511800
     28 N28          6.0480     0.4650     0.3680 nc         1 7HD      -0.341300
     29 O29          6.5410    -0.5180     1.3080 os         1 7HD      -0.070700
     30 H011         6.0150    -2.7650     2.9010 hc         1 7HD       0.065367
     31 H012         5.7440    -3.8130     1.4950 hc         1 7HD       0.065367
     32 H013         7.3600    -3.1480     1.8060 hc         1 7HD       0.065367
     33 H03          4.5110    -2.3260    -0.5060 ha         1 7HD       0.155000
     34 H051         4.8650     1.4770    -1.6680 h1         1 7HD       0.085200
     35 H052         4.6480    -0.0950    -2.4510 h1         1 7HD       0.085200
     36 H07          2.9650     1.8010     0.4870 h4         1 7HD       0.166000
     37 H26          0.0810    -0.0900    -2.1350 h4         1 7HD       0.038100
     38 H12         -1.1360     4.1470     2.3680 h4         1 7HD       0.034100
     39 H24         -1.1640    -0.9120    -0.7380 hn         1 7HD       0.363000
     40 H18         -2.3720    -2.7170    -1.4840 h4         1 7HD       0.151000
     41 H201        -4.6990    -5.4710    -1.2120 h1         1 7HD       0.059367
     42 H202        -5.2290    -4.5840    -2.6740 h1         1 7HD       0.059367
     43 H203        -3.4860    -4.8290    -2.3580 h1         1 7HD       0.059367
     44 H231        -6.2830    -0.0170     0.4890 hc         1 7HD       0.059033
     45 H232        -7.1130    -1.5020     0.9730 hc         1 7HD       0.059033
     46 H233        -5.7580    -0.8970     1.9380 hc         1 7HD       0.059033
@<TRIPOS>BOND
     1     1     2 1   
     2     1    30 1   
     3     1    31 1   
     4     1    32 1   
     5     2     3 2   
     6     2    29 1   
     7     3     4 1   
     8     3    33 1   
     9     4     5 1   
    10     4    28 2   
    11     5     6 1   
    12     5    34 1   
    13     5    35 1   
    14     6     7 1   
    15     6    27 1   
    16     7     8 2   
    17     7    36 1   
    18     8     9 1   
    19     8    26 1   
    20     9    10 ar  
    21     9    25 ar  
    22    10    11 1   
    23    10    12 ar  
    24    12    13 ar  
    25    12    38 1   
    26    13    14 ar  
    27    14    15 1   
    28    14    25 ar  
    29    15    16 2   
    30    16    17 1   
    31    16    24 1   
    32    17    18 2   
    33    17    22 1   
    34    18    19 1   
    35    18    40 1   
    36    19    20 1   
    37    19    21 1   
    38    20    41 1   
    39    20    42 1   
    40    20    43 1   
    41    21    22 2   
    42    22    23 1   
    43    23    44 1   
    44    23    45 1   
    45    23    46 1   
    46    24    25 1   
    47    24    39 1   
    48    26    27 2   
    49    26    37 1   
    50    28    29 1   
@<TRIPOS>SUBSTRUCTURE
     1 7HD         1 TEMP              0 ****  ****    0 ROOT
