@<TRIPOS>MOLECULE
7HF
   67    70     1     0     0
SMALL
abcg2


@<TRIPOS>ATOM
      1 CAP          2.9700     1.2250     0.5990 ca         1 7HF      -0.124000
      2 CAK          3.0160     2.5460     0.2080 ca         1 7HF       0.131000
      3 FBF          3.3010     3.5020     1.1020 f          1 7HF      -0.167000
      4 CAQ          2.7590     2.9030    -1.1010 ca         1 7HF       0.136000
      5 FBG          2.7990     4.1950    -1.4510 f          1 7HF      -0.164000
      6 CAD          2.4600     1.9330    -2.0350 ca         1 7HF      -0.120000
      7 CAA          2.4160     0.6040    -1.6450 ca         1 7HF      -0.083000
      8 CAN          2.6700     0.2310    -0.3270 ca         1 7HF      -0.059300
      9 CBJ          2.6350    -1.2050     0.1060 c5         1 7HF      -0.049400
     10 CAZ          3.6760    -2.1110    -0.5330 c5         1 7HF       0.180800
     11 NAB          3.2220    -3.4380    -0.1580 n3         1 7HF      -0.750600
     12 CBD          3.8790    -4.5090    -0.8670 c3         1 7HF       0.186800
     13 CAW          3.8230    -5.8450    -0.1570 c3         1 7HF       0.156600
     14 OAM          2.5130    -6.3530    -0.1640 os         1 7HF      -0.458000
     15 CBI          2.3960    -7.5670     0.5290 c3         1 7HF       0.146900
     16 CAR          1.7620    -3.4420    -0.1700 c5         1 7HF       0.166800
     17 CBH          1.3480    -1.9620    -0.2510 c5         1 7HF       0.106700
     18 NAJ          0.2170    -1.6210     0.5650 ns         1 7HF      -0.511900
     19 CAS         -0.8640    -0.9590     0.0950 c          1 7HF       0.668100
     20 OBA         -1.0360    -0.6570    -1.0740 o          1 7HF      -0.609100
     21 NAO         -1.7990    -0.6530     1.0580 ns         1 7HF      -0.438100
     22 CAV         -2.9740    -0.0030     0.7150 cc         1 7HF       0.027600
     23 CAG         -4.2320    -0.5160     0.5190 cd         1 7HF      -0.193300
     24 CBE         -4.6870    -1.9270     0.6330 c3         1 7HF       0.002200
     25 CAX         -4.9840     0.6200     0.1490 cd         1 7HF       0.498300
     26 OAI         -6.2850     0.5810    -0.1380 os         1 7HF      -0.450300
     27 CAL         -6.8970     1.8040    -0.5470 c3         1 7HF       0.167600
     28 CAF         -8.3530     1.5260    -0.8300 c3         1 7HF      -0.096100
     29 NAT         -4.2660     1.7170     0.1170 nc         1 7HF      -0.581800
     30 NAY         -3.0310     1.3370     0.4840 na         1 7HF       0.219000
     31 CAE         -1.9890     2.2840     0.5060 ca         1 7HF       0.029800
     32 CAU         -1.9090     3.2270    -0.5130 ca         1 7HF      -0.103500
     33 CAH         -0.9070     4.1840    -0.4850 ca         1 7HF      -0.102500
     34 CBB          0.0230     4.1990     0.5450 ca         1 7HF      -0.111000
     35 CBC         -0.0620     3.2540     1.5570 ca         1 7HF      -0.102500
     36 CAC         -1.0710     2.3020     1.5500 ca         1 7HF      -0.103500
     37 H1           3.1720     0.9760     1.6340 ha         1 7HF       0.130000
     38 H2           2.2570     2.2190    -3.0590 ha         1 7HF       0.138000
     39 H3           2.1790    -0.1460    -2.3890 ha         1 7HF       0.127000
     40 H4           2.7720    -1.2500     1.1920 hc         1 7HF       0.068700
     41 H5           3.7000    -1.9540    -1.6240 h1         1 7HF       0.042200
     42 H6           4.6850    -1.9210    -0.1580 h1         1 7HF       0.042200
     43 H8           3.4980    -4.6250    -1.8960 h1         1 7HF       0.039200
     44 H9           4.9380    -4.2520    -0.9580 h1         1 7HF       0.039200
     45 H10          4.5080    -6.5410    -0.6630 h1         1 7HF       0.028200
     46 H11          4.1910    -5.7240     0.8730 h1         1 7HF       0.028200
     47 H12          1.3550    -7.8850     0.4810 h1         1 7HF       0.028367
     48 H13          3.0190    -8.3550     0.0900 h1         1 7HF       0.028367
     49 H14          2.6790    -7.4680     1.5850 h1         1 7HF       0.028367
     50 H15          1.3540    -3.9930    -1.0260 h1         1 7HF       0.056700
     51 H16          1.3620    -3.9140     0.7310 h1         1 7HF       0.056700
     52 H17          1.0780    -1.7270    -1.2800 h1         1 7HF       0.089700
     53 H18          0.2960    -1.7930     1.5560 hn         1 7HF       0.308500
     54 H19         -1.6770    -0.9590     2.0120 hn         1 7HF       0.327500
     55 H20         -5.4490    -2.0470     1.4050 hc         1 7HF       0.040033
     56 H21         -5.1150    -2.2870    -0.3030 hc         1 7HF       0.040033
     57 H22         -3.8530    -2.5800     0.8890 hc         1 7HF       0.040033
     58 H23         -6.7900     2.5560     0.2390 h1         1 7HF       0.044200
     59 H24         -6.3940     2.1890    -1.4390 h1         1 7HF       0.044200
     60 H25         -8.4750     0.7920    -1.6270 hc         1 7HF       0.045033
     61 H26         -8.8730     1.1660     0.0580 hc         1 7HF       0.045033
     62 H27         -8.8400     2.4480    -1.1490 hc         1 7HF       0.045033
     63 H28         -2.6290     3.2120    -1.3200 ha         1 7HF       0.125000
     64 H29         -0.8500     4.9170    -1.2800 ha         1 7HF       0.116500
     65 H30          0.8050     4.9450     0.5600 ha         1 7HF       0.122000
     66 H31          0.6520     3.2600     2.3700 ha         1 7HF       0.116500
     67 H32         -1.1460     1.5930     2.3620 ha         1 7HF       0.125000
@<TRIPOS>BOND
     1     1     2 ar  
     2     1     8 ar  
     3     1    37 1   
     4     2     3 1   
     5     2     4 ar  
     6     4     5 1   
     7     4     6 ar  
     8     6     7 ar  
     9     6    38 1   
    10     7     8 ar  
    11     7    39 1   
    12     8     9 1   
    13     9    10 1   
    14     9    17 1   
    15     9    40 1   
    16    10    11 1   
    17    10    41 1   
    18    10    42 1   
    19    11    12 1   
    20    11    16 1   
    21    12    13 1   
    22    12    43 1   
    23    12    44 1   
    24    13    14 1   
    25    13    45 1   
    26    13    46 1   
    27    14    15 1   
    28    15    47 1   
    29    15    48 1   
    30    15    49 1   
    31    16    17 1   
    32    16    50 1   
    33    16    51 1   
    34    17    18 1   
    35    17    52 1   
    36    18    19 1   
    37    18    53 1   
    38    19    20 2   
    39    19    21 1   
    40    21    22 1   
    41    21    54 1   
    42    22    23 2   
    43    22    30 1   
    44    23    24 1   
    45    23    25 1   
    46    24    55 1   
    47    24    56 1   
    48    24    57 1   
    49    25    26 1   
    50    25    29 2   
    51    26    27 1   
    52    27    28 1   
    53    27    58 1   
    54    27    59 1   
    55    28    60 1   
    56    28    61 1   
    57    28    62 1   
    58    29    30 1   
    59    30    31 1   
    60    31    32 ar  
    61    31    36 ar  
    62    32    33 ar  
    63    32    63 1   
    64    33    34 ar  
    65    33    64 1   
    66    34    35 ar  
    67    34    65 1   
    68    35    36 ar  
    69    35    66 1   
    70    36    67 1   
@<TRIPOS>SUBSTRUCTURE
     1 7HF         1 TEMP              0 ****  ****    0 ROOT
