@<TRIPOS>MOLECULE
7HF
   67    70     1     0     0
SMALL
No Charge or Current Charge


@<TRIPOS>ATOM
      1 CAP          2.8370     1.6170     0.3170 ca         1 7HF      -0.124000
      2 CAK          3.3030     2.8250    -0.2270 ca         1 7HF       0.131000
      3 FBF          3.1490     3.9740     0.4710 f          1 7HF      -0.167000
      4 CAQ          3.9310     2.8370    -1.4840 ca         1 7HF       0.136000
      5 FBG          4.3820     3.9970    -2.0150 f          1 7HF      -0.164000
      6 CAD          4.0970     1.6380    -2.1940 ca         1 7HF      -0.120000
      7 CAA          3.6330     0.4280    -1.6480 ca         1 7HF      -0.083000
      8 CAN          2.9920     0.4030    -0.3860 ca         1 7HF      -0.059300
      9 CBJ          2.4660    -0.8950     0.2410 c5         1 7HF      -0.049400
     10 CAZ          3.6580    -1.8690     0.4500 c5         1 7HF       0.180800
     11 NAB          2.9430    -3.1650     0.4590 n3         1 7HF      -0.750600
     12 CBD          3.8090    -4.3640     0.6360 c3         1 7HF       0.186800
     13 CAW          3.0710    -5.7300     0.7150 c3         1 7HF       0.156600
     14 OAM          2.6740    -6.1470    -0.6090 os         1 7HF      -0.458000
     15 CBI          1.9650    -7.3950    -0.6520 c3         1 7HF       0.146900
     16 CAR          2.1470    -3.1120    -0.7980 c5         1 7HF       0.166800
     17 CBH          1.5700    -1.6570    -0.8020 c5         1 7HF       0.106700
     18 NAJ          0.2470    -1.7500    -0.1590 ns         1 7HF      -0.511900
     19 CAS         -0.6990    -0.8080    -0.4830 c          1 7HF       0.668100
     20 OBA         -0.5410     0.0450    -1.3390 o          1 7HF      -0.609100
     21 NAO         -1.8540    -0.9680     0.2440 ns         1 7HF      -0.438100
     22 CAV         -3.0030    -0.1780     0.2480 cc         1 7HF       0.027600
     23 CAG         -4.2430    -0.6210     0.6140 cd         1 7HF      -0.193300
     24 CBE         -4.6380    -2.0040     1.0710 c3         1 7HF       0.002200
     25 CAX         -5.0960     0.4990     0.4570 cd         1 7HF       0.498300
     26 OAI         -6.4340     0.4300     0.7370 os         1 7HF      -0.450300
     27 CAL         -7.2630     1.5960     0.5860 c3         1 7HF       0.167600
     28 CAF         -8.6970     1.1980     0.9690 c3         1 7HF      -0.096100
     29 NAT         -4.5150     1.6150     0.0670 nc         1 7HF      -0.581800
     30 NAY         -3.2180     1.1720    -0.0780 na         1 7HF       0.219000
     31 CAE         -2.2080     2.1310    -0.1990 ca         1 7HF       0.029800
     32 CAU         -2.1440     2.9550    -1.3420 ca         1 7HF      -0.103500
     33 CAH         -1.1400     3.9320    -1.4570 ca         1 7HF      -0.102500
     34 CBB         -0.2000     4.1000    -0.4260 ca         1 7HF      -0.111000
     35 CBC         -0.2660     3.2920     0.7220 ca         1 7HF      -0.102500
     36 CAC         -1.2660     2.3100     0.8360 ca         1 7HF      -0.103500
     37 H1           2.3530     1.6260     1.2900 ha         1 7HF       0.130000
     38 H2           4.5860     1.6480    -3.1650 ha         1 7HF       0.138000
     39 H3           3.7740    -0.4910    -2.2120 ha         1 7HF       0.127000
     40 H4           1.9540    -0.7230     1.1950 hc         1 7HF       0.068700
     41 H5           4.3920    -1.8250    -0.3660 h1         1 7HF       0.042200
     42 H6           4.1850    -1.6730     1.3940 h1         1 7HF       0.042200
     43 H8           4.5520    -4.4160    -0.1710 h1         1 7HF       0.039200
     44 H9           4.3730    -4.2490     1.5720 h1         1 7HF       0.039200
     45 H10          3.7540    -6.4710     1.1500 h1         1 7HF       0.028200
     46 H11          2.2020    -5.6380     1.3790 h1         1 7HF       0.028200
     47 H12          1.6970    -7.6470    -1.6860 h1         1 7HF       0.028367
     48 H13          2.5830    -8.2090    -0.2510 h1         1 7HF       0.028367
     49 H14          1.0400    -7.3390    -0.0630 h1         1 7HF       0.028367
     50 H15          2.7920    -3.2630    -1.6750 h1         1 7HF       0.056700
     51 H16          1.3580    -3.8760    -0.8370 h1         1 7HF       0.056700
     52 H17          1.5520    -1.2250    -1.8120 h1         1 7HF       0.089700
     53 H18          0.0380    -2.4120     0.5760 hn         1 7HF       0.308500
     54 H19         -1.8820    -1.8210     0.7840 hn         1 7HF       0.327500
     55 H20         -5.7270    -2.1300     1.0870 hc         1 7HF       0.040033
     56 H21         -4.2280    -2.7720     0.4030 hc         1 7HF       0.040033
     57 H22         -4.2640    -2.2030     2.0820 hc         1 7HF       0.040033
     58 H23         -6.9210     2.4080     1.2430 h1         1 7HF       0.044200
     59 H24         -7.2490     1.9560    -0.4520 h1         1 7HF       0.044200
     60 H25         -9.0640     0.3980     0.3150 hc         1 7HF       0.045033
     61 H26         -8.7370     0.8490     2.0080 hc         1 7HF       0.045033
     62 H27         -9.3690     2.0580     0.8700 hc         1 7HF       0.045033
     63 H28         -2.8720     2.8310    -2.1410 ha         1 7HF       0.125000
     64 H29         -1.0910     4.5600    -2.3440 ha         1 7HF       0.116500
     65 H30          0.5750     4.8570    -0.5140 ha         1 7HF       0.122000
     66 H31          0.4570     3.4270     1.5240 ha         1 7HF       0.116500
     67 H32         -1.3130     1.6910     1.7290 ha         1 7HF       0.125000
@<TRIPOS>BOND
     1     1     2 ar  
     2     1     8 ar  
     3     1    37 1   
     4     2     3 1   
     5     2     4 ar  
     6     4     5 1   
     7     4     6 ar  
     8     6     7 ar  
     9     6    38 1   
    10     7     8 ar  
    11     7    39 1   
    12     8     9 1   
    13     9    10 1   
    14     9    17 1   
    15     9    40 1   
    16    10    11 1   
    17    10    41 1   
    18    10    42 1   
    19    11    12 1   
    20    11    16 1   
    21    12    13 1   
    22    12    43 1   
    23    12    44 1   
    24    13    14 1   
    25    13    45 1   
    26    13    46 1   
    27    14    15 1   
    28    15    47 1   
    29    15    48 1   
    30    15    49 1   
    31    16    17 1   
    32    16    50 1   
    33    16    51 1   
    34    17    18 1   
    35    17    52 1   
    36    18    19 1   
    37    18    53 1   
    38    19    20 2   
    39    19    21 1   
    40    21    22 1   
    41    21    54 1   
    42    22    23 2   
    43    22    30 1   
    44    23    24 1   
    45    23    25 1   
    46    24    55 1   
    47    24    56 1   
    48    24    57 1   
    49    25    26 1   
    50    25    29 2   
    51    26    27 1   
    52    27    28 1   
    53    27    58 1   
    54    27    59 1   
    55    28    60 1   
    56    28    61 1   
    57    28    62 1   
    58    29    30 1   
    59    30    31 1   
    60    31    32 ar  
    61    31    36 ar  
    62    32    33 ar  
    63    32    63 1   
    64    33    34 ar  
    65    33    64 1   
    66    34    35 ar  
    67    34    65 1   
    68    35    36 ar  
    69    35    66 1   
    70    36    67 1   
@<TRIPOS>SUBSTRUCTURE
     1 7HF         1 TEMP              0 ****  ****    0 ROOT
