@<TRIPOS>MOLECULE
7HG
   96    98     1     0     0
SMALL
bcc


@<TRIPOS>ATOM
      1 C1          -3.7790     2.1850     0.4180 c3         1 7HG      -0.163700
      2 C2          -4.2070     0.7380     0.1300 c3         1 7HG       0.155100
      3 C3          -5.7100     0.4230     0.2900 c3         1 7HG      -0.068700
      4 C4          -5.8360    -0.9750     0.9330 c3         1 7HG       0.185300
      5 C5          -5.0490    -2.0470     0.2350 c2         1 7HG      -0.178200
      6 C6           3.8940    -4.0690     0.8080 c6         1 7HG      -0.092400
      7 C7           5.1150    -3.1650     0.8060 c6         1 7HG      -0.103400
      8 C8           4.6940    -1.7390     1.1140 c6         1 7HG       0.085000
      9 N2           3.5830    -1.3640     0.2330 n          1 7HG      -0.364200
     10 N3           3.1680    -2.2420    -0.7560 n7         1 7HG      -0.529200
     11 C9           2.8850    -3.5780    -0.2670 c6         1 7HG       0.097500
     12 C10          1.4830    -3.7060     0.2910 c          1 7HG       0.647100
     13 O1           1.1810    -4.9940     0.3880 os         1 7HG      -0.443900
     14 O2           0.7780    -2.8040     0.6560 o          1 7HG      -0.481000
     15 C25          0.0760    -5.4360     1.1850 c3         1 7HG       0.155400
     16 C26         -1.2920    -5.3550     0.5100 c3         1 7HG      -0.065200
     17 C27         -2.1410    -4.2000     0.9390 c2         1 7HG      -0.154200
     18 C28         -3.1470    -3.6580     0.2480 ce         1 7HG      -0.116000
     19 C29         -4.0050    -2.6380     0.8230 ce         1 7HG      -0.118000
     20 C30         -2.2540     2.2120     0.4390 c          1 7HG       0.670100
     21 O6          -1.6080     1.3710     1.0410 o          1 7HG      -0.578100
     22 C31         -4.2680     2.6800     1.7830 c3         1 7HG      -0.084100
     23 C32         -6.5420     0.5780    -0.9770 c3         1 7HG      -0.077100
     24 O7          -7.2090    -1.2930     1.0170 os         1 7HG      -0.409600
     25 O8          -3.6890     0.2400    -1.0860 os         1 7HG      -0.391600
     26 C33         -7.4880    -2.3860     1.8540 c3         1 7HG       0.125700
     27 C34         -3.6770     1.0720    -2.2230 c3         1 7HG       0.121700
     28 N1          -1.6690     3.2400    -0.2040 ns         1 7HG      -0.562900
     29 C21         -0.2380     3.3170    -0.4010 c3         1 7HG       0.048700
     30 C20          0.2800     1.9430    -0.8590 c          1 7HG       0.674100
     31 O5          -0.2920     1.3580    -1.7660 o          1 7HG      -0.614100
     32 C22          0.5140     4.0590     0.7190 c3         1 7HG      -0.068700
     33 C23          0.0890     5.5260     0.7250 c3         1 7HG      -0.088100
     34 C24          0.3660     3.4760     2.1220 c3         1 7HG      -0.088100
     35 C11          3.0340    -0.1400     0.3310 c          1 7HG       0.699100
     36 C12          2.0640     0.2900    -0.7610 c3         1 7HG       0.060700
     37 O3           3.3560     0.6260     1.2280 o          1 7HG      -0.608100
     38 C13          2.8090     0.5290    -2.0970 c3         1 7HG      -0.051100
     39 C14          3.9210     1.5290    -1.9740 ca         1 7HG      -0.036300
     40 C15          5.2180     1.1140    -1.6810 ca         1 7HG      -0.165000
     41 C16          6.2280     2.0520    -1.5150 ca         1 7HG      -0.089000
     42 C17          5.9690     3.4070    -1.6440 ca         1 7HG      -0.162000
     43 C18          4.6770     3.8280    -1.9520 ca         1 7HG       0.138100
     44 C19          3.6630     2.8900    -2.1160 ca         1 7HG      -0.215000
     45 O4           4.4640     5.1540    -2.0830 oh         1 7HG      -0.497100
     46 N4           1.4120     1.4910    -0.3080 ns         1 7HG      -0.550900
     47 H1          -4.1570     2.8720    -0.3450 hc         1 7HG       0.054700
     48 H2          -3.6910     0.1500     0.8960 h1         1 7HG       0.090700
     49 H3          -6.1260     1.1110     1.0310 hc         1 7HG       0.051700
     50 H4          -5.4250    -0.8830     1.9520 h1         1 7HG       0.026700
     51 H5          -5.3380    -2.3140    -0.7780 ha         1 7HG       0.135000
     52 H7           4.1670    -5.1050     0.6120 hc         1 7HG       0.061700
     53 H8           3.4490    -4.0440     1.8070 hc         1 7HG       0.061700
     54 H9           5.8280    -3.4870     1.5660 hc         1 7HG       0.052700
     55 H10          5.6420    -3.2200    -0.1500 hc         1 7HG       0.052700
     56 H11          4.3700    -1.6690     2.1550 h1         1 7HG       0.062700
     57 H12          5.5240    -1.0420     0.9820 h1         1 7HG       0.062700
     58 H13          3.8800    -2.3060    -1.4740 hn         1 7HG       0.366800
     59 H14          2.9610    -4.2260    -1.1430 h1         1 7HG       0.084700
     60 H32          0.3200    -6.4750     1.3930 h1         1 7HG       0.055200
     61 H33          0.0680    -4.9020     2.1390 h1         1 7HG       0.055200
     62 H34         -1.1920    -5.4070    -0.5770 hc         1 7HG       0.057200
     63 H35         -1.8200    -6.2710     0.7960 hc         1 7HG       0.057200
     64 H36         -1.9640    -3.8390     1.9500 ha         1 7HG       0.121000
     65 H37         -3.3600    -3.9920    -0.7640 ha         1 7HG       0.122000
     66 H38         -3.7570    -2.3400     1.8400 ha         1 7HG       0.113000
     67 H39         -3.7600     3.6040     2.0610 hc         1 7HG       0.042700
     68 H40         -5.3350     2.8940     1.7720 hc         1 7HG       0.042700
     69 H41         -4.0770     1.9440     2.5660 hc         1 7HG       0.042700
     70 H42         -6.2180    -0.0900    -1.7760 hc         1 7HG       0.037700
     71 H43         -7.5900     0.3660    -0.7740 hc         1 7HG       0.037700
     72 H44         -6.4950     1.6000    -1.3550 hc         1 7HG       0.037700
     73 H45         -8.5700    -2.5050     1.8950 h1         1 7HG       0.027700
     74 H46         -7.0510    -3.3210     1.4880 h1         1 7HG       0.027700
     75 H47         -7.1190    -2.2240     2.8750 h1         1 7HG       0.027700
     76 H48         -4.6330     1.5580    -2.4270 h1         1 7HG       0.027700
     77 H49         -2.9000     1.8370    -2.1740 h1         1 7HG       0.027700
     78 H50         -3.4490     0.4310    -3.0760 h1         1 7HG       0.027700
     79 H6          -2.2500     3.8670    -0.7340 hn         1 7HG       0.313500
     80 H24         -0.1090     3.9360    -1.2960 h1         1 7HG       0.052700
     81 H25          1.5760     4.0450     0.4440 hc         1 7HG       0.049700
     82 H26         -0.9700     5.6270     0.9680 hc         1 7HG       0.039033
     83 H27          0.6530     6.0840     1.4740 hc         1 7HG       0.039033
     84 H28          0.2620     6.0010    -0.2420 hc         1 7HG       0.039033
     85 H29          0.6370     2.4230     2.1870 hc         1 7HG       0.039033
     86 H30          1.0040     4.0290     2.8120 hc         1 7HG       0.039033
     87 H31         -0.6600     3.5730     2.4790 hc         1 7HG       0.039033
     88 H15          1.3240    -0.4950    -0.9190 h1         1 7HG       0.121700
     89 H16          3.1920    -0.4210    -2.4680 hc         1 7HG       0.065200
     90 H17          2.0670     0.8650    -2.8220 hc         1 7HG       0.065200
     91 H18          5.4430     0.0590    -1.5870 ha         1 7HG       0.123000
     92 H19          7.2340     1.7240    -1.2870 ha         1 7HG       0.130000
     93 H20          6.7590     4.1370    -1.5190 ha         1 7HG       0.145000
     94 H21          2.6620     3.2180    -2.3790 ha         1 7HG       0.129000
     95 H22          3.5480     5.3270    -2.3240 ho         1 7HG       0.423000
     96 H23          1.8590     1.9930     0.4420 hn         1 7HG       0.345500
@<TRIPOS>BOND
     1     1     2 1   
     2     1    20 1   
     3     1    22 1   
     4     1    47 1   
     5     2     3 1   
     6     2    25 1   
     7     2    48 1   
     8     3     4 1   
     9     3    23 1   
    10     3    49 1   
    11     4     5 1   
    12     4    24 1   
    13     4    50 1   
    14     5    19 2   
    15     5    51 1   
    16     6     7 1   
    17     6    11 1   
    18     6    52 1   
    19     6    53 1   
    20     7     8 1   
    21     7    54 1   
    22     7    55 1   
    23     8     9 1   
    24     8    56 1   
    25     8    57 1   
    26     9    10 1   
    27     9    35 1   
    28    10    11 1   
    29    10    58 1   
    30    11    12 1   
    31    11    59 1   
    32    12    13 1   
    33    12    14 2   
    34    13    15 1   
    35    15    16 1   
    36    15    60 1   
    37    15    61 1   
    38    16    17 1   
    39    16    62 1   
    40    16    63 1   
    41    17    18 2   
    42    17    64 1   
    43    18    19 1   
    44    18    65 1   
    45    19    66 1   
    46    20    21 2   
    47    20    28 1   
    48    22    67 1   
    49    22    68 1   
    50    22    69 1   
    51    23    70 1   
    52    23    71 1   
    53    23    72 1   
    54    24    26 1   
    55    25    27 1   
    56    26    73 1   
    57    26    74 1   
    58    26    75 1   
    59    27    76 1   
    60    27    77 1   
    61    27    78 1   
    62    28    29 1   
    63    28    79 1   
    64    29    30 1   
    65    29    32 1   
    66    29    80 1   
    67    30    31 2   
    68    30    46 1   
    69    32    33 1   
    70    32    34 1   
    71    32    81 1   
    72    33    82 1   
    73    33    83 1   
    74    33    84 1   
    75    34    85 1   
    76    34    86 1   
    77    34    87 1   
    78    35    36 1   
    79    35    37 2   
    80    36    38 1   
    81    36    46 1   
    82    36    88 1   
    83    38    39 1   
    84    38    89 1   
    85    38    90 1   
    86    39    40 ar  
    87    39    44 ar  
    88    40    41 ar  
    89    40    91 1   
    90    41    42 ar  
    91    41    92 1   
    92    42    43 ar  
    93    42    93 1   
    94    43    44 ar  
    95    43    45 1   
    96    44    94 1   
    97    45    95 1   
    98    46    96 1   
@<TRIPOS>SUBSTRUCTURE
     1 7HG         1 TEMP              0 ****  ****    0 ROOT
