@<TRIPOS>MOLECULE
7HG
   96    98     1     0     0
SMALL
No Charge or Current Charge


@<TRIPOS>ATOM
      1 C1          -3.6440     1.9270     1.0240 c3         1 7HG      -0.163700
      2 C2          -4.2180     0.5850     0.4760 c3         1 7HG       0.178300
      3 C3          -5.7000     0.2020     0.8430 c3         1 7HG      -0.068700
      4 C4          -6.1110    -1.2660     0.3110 c3         1 7HG       0.208500
      5 C5          -4.9390    -2.2630     0.2190 c2         1 7HG      -0.228200
      6 C6           3.8990    -4.6010     0.4100 c6         1 7HG      -0.092400
      7 C7           5.0560    -3.6640     0.8700 c6         1 7HG      -0.103400
      8 C8           4.5680    -2.2200     1.1560 c6         1 7HG       0.085000
      9 N2           3.7640    -1.6490     0.0360 n          1 7HG      -0.297200
     10 N3           3.3990    -2.6080    -1.0090 n7         1 7HG      -0.584400
     11 C9           2.8170    -3.8730    -0.4650 c6         1 7HG       0.097500
     12 C10          1.4380    -3.5900     0.2320 c          1 7HG       0.598100
     13 O1           1.3770    -3.8910     1.5770 os         1 7HG      -0.467100
     14 O2           0.5020    -3.0960    -0.3870 o          1 7HG      -0.432000
     15 C25          0.1700    -3.5860     2.3060 c3         1 7HG       0.178600
     16 C26         -0.9280    -4.6360     1.9960 c3         1 7HG      -0.065200
     17 C27         -2.3080    -4.0260     2.1340 c2         1 7HG      -0.204200
     18 C28         -3.0490    -3.5740     1.1020 ce         1 7HG      -0.166000
     19 C29         -4.3020    -2.8330     1.2630 ce         1 7HG      -0.168000
     20 C30         -2.1290     1.9320     0.7550 c          1 7HG       0.603100
     21 O6          -1.3820     1.1020     1.2560 o          1 7HG      -0.578100
     22 C31         -3.8900     2.1410     2.5420 c3         1 7HG      -0.084100
     23 C32         -6.7940     1.2760     0.5800 c3         1 7HG      -0.077100
     24 O7          -6.7500    -1.2230    -1.0040 os         1 7HG      -0.456000
     25 O8          -3.9440     0.4830    -0.9490 os         1 7HG      -0.438000
     26 C33         -7.4590    -2.4150    -1.3890 c3         1 7HG       0.148900
     27 C34         -4.6400     1.3380    -1.8780 c3         1 7HG       0.144900
     28 N1          -1.6670     2.9300    -0.0810 ns         1 7HG      -0.495900
     29 C21         -0.2530     3.1020    -0.5010 c3         1 7HG       0.048700
     30 C20          0.3460     1.7570    -1.0490 c          1 7HG       0.607100
     31 O5          -0.2570     1.0560    -1.8530 o          1 7HG      -0.614100
     32 C22          0.6170     3.9130     0.5220 c3         1 7HG      -0.068700
     33 C23          0.1250     5.3760     0.6340 c3         1 7HG      -0.088100
     34 C24          0.7380     3.2810     1.9320 c3         1 7HG      -0.088100
     35 C11          3.2480    -0.3210     0.1190 c          1 7HG       0.632100
     36 C12          2.3430     0.1920    -1.0420 c3         1 7HG       0.060700
     37 O3           3.5060     0.3890     1.0900 o          1 7HG      -0.608100
     38 C13          3.1290     0.4310    -2.3590 c3         1 7HG      -0.051100
     39 C14          4.0800     1.6190    -2.2750 ca         1 7HG      -0.036300
     40 C15          5.3850     1.4480    -1.7730 ca         1 7HG      -0.147000
     41 C16          6.2600     2.5440    -1.6810 ca         1 7HG      -0.071000
     42 C17          5.8340     3.8170    -2.0940 ca         1 7HG      -0.144000
     43 C18          4.5370     3.9930    -2.5990 ca         1 7HG       0.138100
     44 C19          3.6620     2.9000    -2.6900 ca         1 7HG      -0.197000
     45 O4           4.1310     5.2300    -3.0010 oh         1 7HG      -0.536100
     46 N4           1.6140     1.4150    -0.6320 ns         1 7HG      -0.483900
     47 H1          -4.1040     2.7700     0.4990 hc         1 7HG       0.054700
     48 H2          -3.6120    -0.1860     0.9710 h1         1 7HG       0.090700
     49 H3          -5.6840     0.0870     1.9340 hc         1 7HG       0.051700
     50 H4          -6.8370    -1.6610     1.0350 h1         1 7HG       0.026700
     51 H5          -4.5530    -2.3880    -0.7930 ha         1 7HG       0.185000
     52 H7           4.3360    -5.4180    -0.1800 hc         1 7HG       0.061700
     53 H8           3.4500    -5.0990     1.2780 hc         1 7HG       0.061700
     54 H9           5.5510    -4.0800     1.7590 hc         1 7HG       0.052700
     55 H10          5.8250    -3.6260     0.0850 hc         1 7HG       0.052700
     56 H11          3.9490    -2.2240     2.0650 h1         1 7HG       0.062700
     57 H12          5.4350    -1.5720     1.3520 h1         1 7HG       0.062700
     58 H13          4.2260    -2.8140    -1.5890 hn         1 7HG       0.422000
     59 H14          2.5610    -4.5360    -1.3050 h1         1 7HG       0.084700
     60 H32          0.3650    -3.5890     3.3860 h1         1 7HG       0.055200
     61 H33         -0.1870    -2.5800     2.0450 h1         1 7HG       0.055200
     62 H34         -0.7980    -5.0390     0.9850 hc         1 7HG       0.057200
     63 H35         -0.8130    -5.4840     2.6820 hc         1 7HG       0.057200
     64 H36         -2.6500    -3.8990     3.1640 ha         1 7HG       0.171000
     65 H37         -2.6750    -3.6810     0.0810 ha         1 7HG       0.172000
     66 H38         -4.6550    -2.6660     2.2830 ha         1 7HG       0.163000
     67 H39         -3.3820     3.0500     2.8860 hc         1 7HG       0.042700
     68 H40         -4.9570     2.2550     2.7660 hc         1 7HG       0.042700
     69 H41         -3.5060     1.2960     3.1260 hc         1 7HG       0.042700
     70 H42         -7.0260     1.3880    -0.4820 hc         1 7HG       0.037700
     71 H43         -7.7240     0.9900     1.0850 hc         1 7HG       0.037700
     72 H44         -6.4960     2.2560     0.9670 hc         1 7HG       0.037700
     73 H45         -7.9320    -2.2760    -2.3690 h1         1 7HG       0.027700
     74 H46         -6.7820    -3.2760    -1.4580 h1         1 7HG       0.027700
     75 H47         -8.2470    -2.6510    -0.6610 h1         1 7HG       0.027700
     76 H48         -5.6570     0.9740    -2.0630 h1         1 7HG       0.027700
     77 H49         -4.6890     2.3760    -1.5320 h1         1 7HG       0.027700
     78 H50         -4.1200     1.3350    -2.8450 h1         1 7HG       0.027700
     79 H6          -2.3620     3.5660    -0.4530 hn         1 7HG       0.313500
     80 H24         -0.2910     3.7300    -1.4010 h1         1 7HG       0.052700
     81 H25          1.6320     3.9760     0.1080 hc         1 7HG       0.049700
     82 H26         -0.8840     5.4210     1.0630 hc         1 7HG       0.039033
     83 H27          0.7940     5.9620     1.2760 hc         1 7HG       0.039033
     84 H28          0.1010     5.8560    -0.3520 hc         1 7HG       0.039033
     85 H29          1.0780     2.2410     1.8850 hc         1 7HG       0.039033
     86 H30          1.4620     3.8390     2.5390 hc         1 7HG       0.039033
     87 H31         -0.2240     3.3050     2.4580 hc         1 7HG       0.039033
     88 H15          1.6150    -0.6100    -1.2190 h1         1 7HG       0.121700
     89 H16          3.6820    -0.4740    -2.6350 hc         1 7HG       0.065200
     90 H17          2.4070     0.5910    -3.1690 hc         1 7HG       0.065200
     91 H18          5.7220     0.4660    -1.4500 ha         1 7HG       0.105000
     92 H19          7.2660     2.4060    -1.2910 ha         1 7HG       0.112000
     93 H20          6.5100     4.6660    -2.0240 ha         1 7HG       0.127000
     94 H21          2.6560     3.0370    -3.0790 ha         1 7HG       0.111000
     95 H22          3.2170     5.1580    -3.3470 ho         1 7HG       0.462000
     96 H23          2.0570     2.0230     0.0470 hn         1 7HG       0.345500
@<TRIPOS>BOND
     1     1     2 1   
     2     1    20 1   
     3     1    22 1   
     4     1    47 1   
     5     2     3 1   
     6     2    25 1   
     7     2    48 1   
     8     3     4 1   
     9     3    23 1   
    10     3    49 1   
    11     4     5 1   
    12     4    24 1   
    13     4    50 1   
    14     5    19 2   
    15     5    51 1   
    16     6     7 1   
    17     6    11 1   
    18     6    52 1   
    19     6    53 1   
    20     7     8 1   
    21     7    54 1   
    22     7    55 1   
    23     8     9 1   
    24     8    56 1   
    25     8    57 1   
    26     9    10 1   
    27     9    35 1   
    28    10    11 1   
    29    10    58 1   
    30    11    12 1   
    31    11    59 1   
    32    12    13 1   
    33    12    14 2   
    34    13    15 1   
    35    15    16 1   
    36    15    60 1   
    37    15    61 1   
    38    16    17 1   
    39    16    62 1   
    40    16    63 1   
    41    17    18 2   
    42    17    64 1   
    43    18    19 1   
    44    18    65 1   
    45    19    66 1   
    46    20    21 2   
    47    20    28 1   
    48    22    67 1   
    49    22    68 1   
    50    22    69 1   
    51    23    70 1   
    52    23    71 1   
    53    23    72 1   
    54    24    26 1   
    55    25    27 1   
    56    26    73 1   
    57    26    74 1   
    58    26    75 1   
    59    27    76 1   
    60    27    77 1   
    61    27    78 1   
    62    28    29 1   
    63    28    79 1   
    64    29    30 1   
    65    29    32 1   
    66    29    80 1   
    67    30    31 2   
    68    30    46 1   
    69    32    33 1   
    70    32    34 1   
    71    32    81 1   
    72    33    82 1   
    73    33    83 1   
    74    33    84 1   
    75    34    85 1   
    76    34    86 1   
    77    34    87 1   
    78    35    36 1   
    79    35    37 2   
    80    36    38 1   
    81    36    46 1   
    82    36    88 1   
    83    38    39 1   
    84    38    89 1   
    85    38    90 1   
    86    39    40 ar  
    87    39    44 ar  
    88    40    41 ar  
    89    40    91 1   
    90    41    42 ar  
    91    41    92 1   
    92    42    43 ar  
    93    42    93 1   
    94    43    44 ar  
    95    43    45 1   
    96    44    94 1   
    97    45    95 1   
    98    46    96 1   
@<TRIPOS>SUBSTRUCTURE
     1 7HG         1 TEMP              0 ****  ****    0 ROOT
