@<TRIPOS>MOLECULE
7HH
   49    51     1     0     0
SMALL
abcg2


@<TRIPOS>ATOM
      1 N14         -5.4790     1.1430     0.0480 ns         1 7HH      -0.457900
      2 C16         -7.5670     2.3410    -0.3980 c          1 7HH       0.713000
      3 C15         -6.9110     1.0640     0.1680 c3         1 7HH      -0.060000
      4 C20          1.5420     2.1520    -0.1570 c3         1 7HH       0.217900
      5 C21          3.0170     1.8930    -0.1510 ca         1 7HH      -0.086300
      6 C22          3.5980     1.1770     0.8940 ca         1 7HH      -0.081000
      7 C23          4.9580     0.9170     0.9080 ca         1 7HH      -0.109500
      8 C24          5.7440     1.3850    -0.1360 ca         1 7HH       0.125000
      9 C12         -4.6420     0.1690     0.4100 c          1 7HH       0.592700
     10 C27          1.0570    -4.9200    -0.5030 ca         1 7HH      -0.071500
     11 CL1          7.4470     1.0660    -0.1250 cl         1 7HH      -0.211000
     12 C2          -3.1820     0.4410     0.2220 ca         1 7HH      -0.129600
     13 C3          -2.3210    -0.6580     0.2080 ca         1 7HH      -0.063000
     14 C4          -0.9560    -0.4900     0.0460 ca         1 7HH      -0.066000
     15 C5          -0.4390     0.8160    -0.0900 ca         1 7HH       0.082100
     16 C6          -1.2900     1.9070    -0.0620 ca         1 7HH      -0.185000
     17 C7          -2.6580     1.7180     0.0920 ca         1 7HH      -0.070000
     18 N8          -0.0130    -1.5200     0.0340 ns         1 7HH      -0.135000
     19 C9          -0.2090    -2.8620     0.0480 c          1 7HH       0.612700
     20 C10          1.0490    -3.6650     0.1020 ca         1 7HH      -0.144600
     21 O11         -1.3040    -3.3960     0.0070 o          1 7HH      -0.571100
     22 O13         -5.0300    -0.9020     0.8690 o          1 7HH      -0.646100
     23 O17         -8.8070     2.3770    -0.3340 o          1 7HH      -0.729500
     24 O18         -6.8030     3.2090    -0.8630 o          1 7HH      -0.729500
     25 O19          0.8950     0.8880    -0.2370 os         1 7HH      -0.375100
     26 C25          5.1920     2.1020    -1.1840 ca         1 7HH      -0.109500
     27 C26          3.8250     2.3460    -1.1850 ca         1 7HH      -0.081000
     28 C28          2.2000    -5.7030    -0.4710 ca         1 7HH      -0.122500
     29 C29          3.3380    -5.2500     0.1840 ca         1 7HH      -0.096000
     30 C30          3.3290    -4.0110     0.8090 ca         1 7HH      -0.122500
     31 C31          2.1910    -3.2190     0.7660 ca         1 7HH      -0.071500
     32 H36         -5.1590     1.9880    -0.4040 hn         1 7HH       0.341500
     33 H37         -7.3020     0.1950    -0.3710 h1         1 7HH       0.038200
     34 H38         -7.2120     0.9400     1.2130 h1         1 7HH       0.038200
     35 H41          1.2330     2.6670     0.7580 h1         1 7HH       0.047200
     36 H40          1.2630     2.7800    -1.0090 h1         1 7HH       0.047200
     37 H42          2.9900     0.8170     1.7150 ha         1 7HH       0.123500
     38 H43          5.4000     0.3620     1.7240 ha         1 7HH       0.128000
     39 H46          0.1720    -5.2800    -1.0110 ha         1 7HH       0.126000
     40 H32         -2.7340    -1.6460     0.3280 ha         1 7HH       0.172000
     41 H33         -0.9060     2.9130    -0.1590 ha         1 7HH       0.111000
     42 H34         -3.2860     2.5980     0.1320 ha         1 7HH       0.135000
     43 H35          0.9410    -1.2070    -0.0640 hn         1 7HH       0.164000
     44 H44          5.8110     2.4630    -1.9940 ha         1 7HH       0.128000
     45 H45          3.3890     2.8960    -2.0100 ha         1 7HH       0.123500
     46 H47          2.2030    -6.6700    -0.9580 ha         1 7HH       0.112000
     47 H48          4.2280    -5.8650     0.2110 ha         1 7HH       0.108000
     48 H49          4.2060    -3.6610     1.3370 ha         1 7HH       0.112000
     49 H50          2.1970    -2.2690     1.2870 ha         1 7HH       0.126000
@<TRIPOS>BOND
     1     1     3 1   
     2     1     9 1   
     3     1    32 1   
     4     2     3 1   
     5     2    23 1   
     6     2    24 1   
     7     3    33 1   
     8     3    34 1   
     9     4     5 1   
    10     4    25 1   
    11     4    35 1   
    12     4    36 1   
    13     5     6 ar  
    14     5    27 ar  
    15     6     7 ar  
    16     6    37 1   
    17     7     8 ar  
    18     7    38 1   
    19     8    11 1   
    20     8    26 ar  
    21     9    12 1   
    22     9    22 2   
    23    10    20 ar  
    24    10    28 ar  
    25    10    39 1   
    26    12    13 ar  
    27    12    17 ar  
    28    13    14 ar  
    29    13    40 1   
    30    14    15 ar  
    31    14    18 1   
    32    15    16 ar  
    33    15    25 1   
    34    16    17 ar  
    35    16    41 1   
    36    17    42 1   
    37    18    19 1   
    38    18    43 1   
    39    19    20 1   
    40    19    21 2   
    41    20    31 ar  
    42    26    27 ar  
    43    26    44 1   
    44    27    45 1   
    45    28    29 ar  
    46    28    46 1   
    47    29    30 ar  
    48    29    47 1   
    49    30    31 ar  
    50    30    48 1   
    51    31    49 1   
@<TRIPOS>SUBSTRUCTURE
     1 7HH         1 TEMP              0 ****  ****    0 ROOT
