@<TRIPOS>MOLECULE
7HH
   49    51     1     0     0
SMALL
No Charge or Current Charge


@<TRIPOS>ATOM
      1 N14         -5.5970     1.2310     0.0390 ns         1 7HH      -0.457900
      2 C16         -7.6980     2.6250    -0.0760 c          1 7HH       0.713000
      3 C15         -7.0790     1.2040     0.0470 c3         1 7HH      -0.060000
      4 C20          1.5490     2.1700     0.0580 c3         1 7HH       0.217900
      5 C21          3.0530     1.9350     0.0560 ca         1 7HH      -0.086300
      6 C22          3.7510     1.7900     1.2730 ca         1 7HH      -0.081000
      7 C23          5.1390     1.5590     1.2700 ca         1 7HH      -0.109500
      8 C24          5.8330     1.4710     0.0520 ca         1 7HH       0.125000
      9 C12         -4.7830     0.1180     0.0210 c          1 7HH       0.592700
     10 C27          1.0600    -5.2160    -0.0500 ca         1 7HH      -0.071500
     11 Cl1          7.5670     1.1810     0.0500 cl         1 7HH      -0.211000
     12 C2          -3.2850     0.3630     0.0260 ca         1 7HH      -0.129600
     13 C3          -2.4040    -0.7440     0.0110 ca         1 7HH      -0.063000
     14 C4          -1.0020    -0.5610     0.0150 ca         1 7HH      -0.066000
     15 C5          -0.4750     0.7450     0.0350 ca         1 7HH       0.082100
     16 C6          -1.3430     1.8550     0.0500 ca         1 7HH      -0.185000
     17 C7          -2.7350     1.6670     0.0460 ca         1 7HH      -0.070000
     18 N8          -0.0660    -1.6350     0.0010 ns         1 7HH      -0.135000
     19 C9          -0.2010    -3.0170    -0.0200 c          1 7HH       0.612700
     20 C10          1.1000    -3.8020    -0.0300 ca         1 7HH      -0.144600
     21 O11         -1.2880    -3.5860    -0.0290 o          1 7HH      -0.571100
     22 O13         -5.2600    -1.0100     0.0020 o          1 7HH      -0.646100
     23 O17         -8.8450     2.7160    -0.4880 o          1 7HH      -0.729500
     24 O18         -7.0060     3.5940     0.2090 o          1 7HH      -0.729500
     25 O19          0.9000     0.8880     0.0380 os         1 7HH      -0.375100
     26 C25          5.1440     1.6130    -1.1630 ca         1 7HH      -0.109500
     27 C26          3.7560     1.8430    -1.1620 ca         1 7HH      -0.081000
     28 C28          2.2470    -5.9700    -0.0600 ca         1 7HH      -0.122500
     29 C29          3.4920    -5.3250    -0.0490 ca         1 7HH      -0.096000
     30 C30          3.5510    -3.9240    -0.0290 ca         1 7HH      -0.122500
     31 C31          2.3680    -3.1630    -0.0190 ca         1 7HH      -0.071500
     32 H36         -5.1440     2.1360     0.0640 hn         1 7HH       0.341500
     33 H37         -7.4320     0.5930    -0.7940 h1         1 7HH       0.038200
     34 H38         -7.4270     0.7540     0.9850 h1         1 7HH       0.038200
     35 H41          1.2670     2.7350     0.9570 h1         1 7HH       0.047200
     36 H40          1.2680     2.7620    -0.8230 h1         1 7HH       0.047200
     37 H42          3.2180     1.8510     2.2190 ha         1 7HH       0.123500
     38 H43          5.6740     1.4470     2.2090 ha         1 7HH       0.128000
     39 H46          0.1060    -5.7400    -0.0590 ha         1 7HH       0.126000
     40 H32         -2.8280    -1.7430    -0.0040 ha         1 7HH       0.172000
     41 H33         -0.9600     2.8710     0.0650 ha         1 7HH       0.111000
     42 H34         -3.3690     2.5490     0.0580 ha         1 7HH       0.135000
     43 H35          0.8930    -1.3160     0.0060 hn         1 7HH       0.164000
     44 H44          5.6840     1.5420    -2.1040 ha         1 7HH       0.128000
     45 H45          3.2270     1.9460    -2.1070 ha         1 7HH       0.123500
     46 H47          2.1980    -7.0570    -0.0760 ha         1 7HH       0.112000
     47 H48          4.4100    -5.9100    -0.0570 ha         1 7HH       0.108000
     48 H49          4.5160    -3.4220    -0.0200 ha         1 7HH       0.112000
     49 H50          2.4600    -2.0800    -0.0030 ha         1 7HH       0.126000
@<TRIPOS>BOND
     1     1     3 1   
     2     1     9 1   
     3     1    32 1   
     4     2     3 1   
     5     2    23 1   
     6     2    24 1   
     7     3    33 1   
     8     3    34 1   
     9     4     5 1   
    10     4    25 1   
    11     4    35 1   
    12     4    36 1   
    13     5     6 ar  
    14     5    27 ar  
    15     6     7 ar  
    16     6    37 1   
    17     7     8 ar  
    18     7    38 1   
    19     8    11 1   
    20     8    26 ar  
    21     9    12 1   
    22     9    22 2   
    23    10    20 ar  
    24    10    28 ar  
    25    10    39 1   
    26    12    13 ar  
    27    12    17 ar  
    28    13    14 ar  
    29    13    40 1   
    30    14    15 ar  
    31    14    18 1   
    32    15    16 ar  
    33    15    25 1   
    34    16    17 ar  
    35    16    41 1   
    36    17    42 1   
    37    18    19 1   
    38    18    43 1   
    39    19    20 1   
    40    19    21 2   
    41    20    31 ar  
    42    26    27 ar  
    43    26    44 1   
    44    27    45 1   
    45    28    29 ar  
    46    28    46 1   
    47    29    30 ar  
    48    29    47 1   
    49    30    31 ar  
    50    30    48 1   
    51    31    49 1   
@<TRIPOS>SUBSTRUCTURE
     1 7HH         1 TEMP              0 ****  ****    0 ROOT
