@<TRIPOS>MOLECULE
7HI
   75    78     1     0     0
SMALL
bcc


@<TRIPOS>ATOM
      1 N1           1.5040    -1.3270     0.8340 na         1 7HI      -0.029100
      2 C4           2.4800    -4.5540    -0.8300 c3         1 7HI      -0.067400
      3 C5           1.3930    -2.6060     0.3280 cc         1 7HI      -0.107600
      4 C7           2.7420    -0.7710     1.3500 c3         1 7HI       0.032300
      5 C8           3.5690    -0.1180     0.2460 c3         1 7HI      -0.099400
      6 C10          5.6870     1.0370    -0.4260 c3         1 7HI      -0.155400
      7 C13         -0.0180     1.6820    -0.2550 c3         1 7HI      -0.088100
      8 C15         -8.8670     1.4410     0.8890 ca         1 7HI      -0.122500
      9 C17         -4.5590     0.1800    -1.0120 ca         1 7HI      -0.175000
     10 C20         -5.8350     0.7120    -1.1010 ca         1 7HI      -0.089000
     11 C21        -10.4950     2.7410    -0.3160 ca         1 7HI      -0.134000
     12 C22         -7.9050     1.6900    -0.0920 cp         1 7HI      -0.016000
     13 C24         -9.5480     2.9960    -1.3000 ca         1 7HI      -0.129500
     14 C26         -4.6410     0.4750     1.3670 ca         1 7HI      -0.175000
     15 O2          -2.3530    -1.6690    -1.4690 o          1 7HI      -0.589100
     16 N2          -2.6530    -0.4450     0.4220 ns         1 7HI      -0.479100
     17 C32         -3.9430     0.0510     0.2340 ca         1 7HI       0.093600
     18 C23         -5.9130     1.0060     1.2630 ca         1 7HI      -0.089000
     19 C29         -6.5430     1.1330     0.0240 cp         1 7HI      -0.078000
     20 C18         -8.2670     2.4780    -1.1880 ca         1 7HI      -0.122500
     21 C16        -10.1480     1.9610     0.7790 ca         1 7HI      -0.129500
     22 C2          -0.5480    -1.5160     0.0430 cd         1 7HI      -0.246600
     23 C12          0.3390    -0.6460     0.6600 cc         1 7HI      -0.066600
     24 C27          2.5330    -3.5780     0.3450 c3         1 7HI      -0.007100
     25 C25          1.4750    -5.6930    -0.6730 c3         1 7HI      -0.070400
     26 C19          0.1150    -5.2860    -0.1120 c3         1 7HI      -0.072400
     27 C14         -0.4750    -4.0170    -0.7270 c3         1 7HI       0.001900
     28 C1           0.1260    -2.7570    -0.1740 cd         1 7HI      -0.088300
     29 C9           4.9200     0.3880     0.7250 c3         1 7HI       0.162100
     30 O4           5.6180    -0.7040     1.2890 oh         1 7HI      -0.639800
     31 C11          7.0160     1.6730    -0.0240 c3         1 7HI       0.155100
     32 O3           7.8850     0.7230     0.5970 oh         1 7HI      -0.607800
     33 C35          7.7030     2.3400    -1.2020 c3         1 7HI      -0.239400
     34 C36          8.9940     3.0960    -0.8380 c          1 7HI       0.933600
     35 O7           9.9250     3.0490    -1.6670 o          1 7HI      -0.835800
     36 O6           8.9920     3.7250     0.2390 o          1 7HI      -0.835800
     37 H4           2.2680    -3.9870    -1.7400 hc         1 7HI       0.043700
     38 H4A          3.4730    -4.9870    -0.9720 hc         1 7HI       0.043700
     39 H6           1.0750     1.1680     1.5110 hc         1 7HI       0.046200
     40 H6A         -0.6310     0.9690     1.6840 hc         1 7HI       0.046200
     41 H7           2.5120    -0.0520     2.1370 h1         1 7HI       0.068700
     42 H7A          3.2980    -1.5710     1.8330 h1         1 7HI       0.068700
     43 H8           3.7200    -0.8370    -0.5660 hc         1 7HI       0.053200
     44 H8A          3.0090     0.7190    -0.1780 hc         1 7HI       0.053200
     45 H10          5.8490     0.2970    -1.2200 hc         1 7HI       0.044700
     46 H10A         5.0580     1.8210    -0.8590 hc         1 7HI       0.044700
     47 H13          0.8040     1.5620    -0.9610 hc         1 7HI       0.042033
     48 H13A        -0.9440     1.4320    -0.7710 hc         1 7HI       0.042033
     49 H13B        -0.0700     2.7330     0.0280 hc         1 7HI       0.042033
     50 H17         -4.0590    -0.1290    -1.9160 ha         1 7HI       0.145500
     51 H20         -6.2900     0.7820    -2.0800 ha         1 7HI       0.128500
     52 H24         -9.8050     3.6080    -2.1550 ha         1 7HI       0.126500
     53 H26         -4.1790     0.3900     2.3450 ha         1 7HI       0.145500
     54 HN2         -2.2780    -0.3160     1.3490 hn         1 7HI       0.319500
     55 H23         -6.4130     1.3360     2.1640 ha         1 7HI       0.128500
     56 H18         -7.5340     2.7040    -1.9530 ha         1 7HI       0.131500
     57 H16        -10.8800     1.7490     1.5480 ha         1 7HI       0.126500
     58 H27          2.5670    -4.1320     1.2910 hc         1 7HI       0.054200
     59 H27A         3.4790    -3.0360     0.2880 hc         1 7HI       0.054200
     60 H25          1.3360    -6.1630    -1.6520 hc         1 7HI       0.031700
     61 H25A         1.9000    -6.4650    -0.0250 hc         1 7HI       0.031700
     62 H19         -0.5820    -6.1140    -0.2620 hc         1 7HI       0.034700
     63 H19A         0.1830    -5.1490     0.9720 hc         1 7HI       0.034700
     64 H14         -0.3790    -4.0530    -1.8180 hc         1 7HI       0.052200
     65 H14A        -1.5490    -4.0050    -0.5360 hc         1 7HI       0.052200
     66 H9           4.7450     1.1640     1.4900 h1         1 7HI       0.027700
     67 HO4          6.5470    -0.4340     1.3510 ho         1 7HI       0.445000
     68 H11          6.8280     2.4260     0.7460 h1         1 7HI       0.087700
     69 HO3          8.2390     0.1460    -0.0900 ho         1 7HI       0.396000
     70 H35          7.8960     1.5960    -1.9830 hc         1 7HI       0.023200
     71 H35A         7.0050     3.0600    -1.6470 hc         1 7HI       0.023200
     72 C6           0.1920     0.8090     0.9830 c3         1 7HI      -0.014100
     73 C3          -1.9110    -1.2280    -0.4190 c          1 7HI       0.723700
     74 H15         -8.6190     0.8170     1.7390 ha         1 7HI       0.131500
     75 H21        -11.4950     3.1470    -0.4020 ha         1 7HI       0.126000
@<TRIPOS>BOND
     1     1     3 1   
     2     1     4 1   
     3     1    23 1   
     4     2    24 1   
     5     2    25 1   
     6     2    37 1   
     7     2    38 1   
     8     3    24 1   
     9     3    28 2   
    10     4     5 1   
    11     4    41 1   
    12     4    42 1   
    13     5    29 1   
    14     5    43 1   
    15     5    44 1   
    16     6    29 1   
    17     6    31 1   
    18     6    45 1   
    19     6    46 1   
    20     7    47 1   
    21     7    48 1   
    22     7    49 1   
    23     7    72 1   
    24     8    12 ar  
    25     8    21 ar  
    26     8    74 1   
    27     9    10 ar  
    28     9    17 ar  
    29     9    50 1   
    30    10    19 ar  
    31    10    51 1   
    32    11    13 ar  
    33    11    21 ar  
    34    11    75 1   
    35    12    19 1   
    36    12    20 ar  
    37    13    20 ar  
    38    13    52 1   
    39    14    17 ar  
    40    14    18 ar  
    41    14    53 1   
    42    15    73 2   
    43    16    17 1   
    44    16    54 1   
    45    16    73 1   
    46    18    19 ar  
    47    18    55 1   
    48    20    56 1   
    49    21    57 1   
    50    22    23 2   
    51    22    28 1   
    52    22    73 1   
    53    23    72 1   
    54    24    58 1   
    55    24    59 1   
    56    25    26 1   
    57    25    60 1   
    58    25    61 1   
    59    26    27 1   
    60    26    62 1   
    61    26    63 1   
    62    27    28 1   
    63    27    64 1   
    64    27    65 1   
    65    29    30 1   
    66    29    66 1   
    67    30    67 1   
    68    31    32 1   
    69    31    33 1   
    70    31    68 1   
    71    32    69 1   
    72    33    34 1   
    73    33    70 1   
    74    33    71 1   
    75    34    35 1   
    76    34    36 1   
    77    39    72 1   
    78    40    72 1   
@<TRIPOS>SUBSTRUCTURE
     1 7HI         1 TEMP              0 ****  ****    0 ROOT
