@<TRIPOS>MOLECULE
7HI
   75    78     1     0     0
SMALL
No Charge or Current Charge


@<TRIPOS>ATOM
      1 N1           1.5020    -1.6290     0.5870 na         1 7HI       0.043000
      2 C4           2.5020    -4.7370    -1.3770 c3         1 7HI      -0.067400
      3 C5           1.4230    -2.9180     0.0560 cc         1 7HI      -0.158300
      4 C7           2.7380    -1.0510     1.1680 c3         1 7HI       0.061600
      5 C8           3.5570    -0.2070     0.1650 c3         1 7HI      -0.099400
      6 C10          5.6140     1.2890    -0.2210 c3         1 7HI      -0.155400
      7 C13         -0.0590     1.4310    -0.3020 c3         1 7HI      -0.088100
      8 C15         -8.1750     2.9900     0.9020 ca         1 7HI      -0.104500
      9 C17         -5.0960    -0.7040    -0.2640 ca         1 7HI      -0.157000
     10 C20         -6.3560    -0.0820    -0.2870 ca         1 7HI      -0.071000
     11 C21        -10.4010     3.2070    -0.0590 ca         1 7HI      -0.116000
     12 C22         -7.8490     1.9550    -0.0120 cp         1 7HI      -0.016000
     13 C24        -10.1010     2.1850    -0.9740 ca         1 7HI      -0.111500
     14 C26         -4.0750     1.4020     0.3650 ca         1 7HI      -0.157000
     15 O2          -2.7990    -2.5890    -0.8430 o          1 7HI      -0.589100
     16 N2          -2.6320    -0.5190     0.1070 ns         1 7HI      -0.153000
     17 C32         -3.9390     0.0370     0.0570 ca         1 7HI       0.001000
     18 C23         -5.3350     2.0230     0.3420 ca         1 7HI      -0.071000
     19 C29         -6.5040     1.2940     0.0130 cp         1 7HI      -0.078000
     20 C18         -8.8390     1.5660    -0.9500 ca         1 7HI      -0.104500
     21 C16         -9.4370     3.6090     0.8790 ca         1 7HI      -0.111500
     22 C2          -0.6320    -1.9330    -0.0090 cd         1 7HI      -0.246600
     23 C12          0.2540    -0.9850     0.5040 cc         1 7HI      -0.117300
     24 C27          2.6200    -3.8340    -0.1330 c3         1 7HI      -0.007100
     25 C25          1.5940    -5.9700    -1.1870 c3         1 7HI      -0.070400
     26 C19          0.3060    -5.7160    -0.3720 c3         1 7HI      -0.072400
     27 C14         -0.4830    -4.4480    -0.7670 c3         1 7HI       0.001900
     28 C1           0.1020    -3.1390    -0.2510 cd         1 7HI      -0.088300
     29 C9           4.8490     0.3840     0.7710 c3         1 7HI       0.185300
     30 O4           5.7220    -0.6690     1.1610 oh         1 7HI      -0.702000
     31 C11          6.8970     1.9370     0.3580 c3         1 7HI       0.178300
     32 O3           7.8440     0.9110     0.6770 oh         1 7HI      -0.670000
     33 C35          7.5670     2.9060    -0.6340 c3         1 7HI      -0.239400
     34 C36          8.7460     3.5950     0.0560 c          1 7HI       0.723000
     35 O7           9.8030     2.9850     0.1000 o          1 7HI      -0.730500
     36 O6           8.5440     4.6550     0.6260 o          1 7HI      -0.730500
     37 H4           2.1370    -4.1370    -2.2200 hc         1 7HI       0.043700
     38 H4A          3.5020    -5.0870    -1.6620 hc         1 7HI       0.043700
     39 H6           0.8830     0.8330     1.5210 hc         1 7HI       0.046200
     40 H6A         -0.8160     0.5830     1.5610 hc         1 7HI       0.046200
     41 H7           2.4810    -0.4450     2.0440 h1         1 7HI       0.068700
     42 H7A          3.3610    -1.8700     1.5460 h1         1 7HI       0.068700
     43 H8           3.8100    -0.8210    -0.7080 hc         1 7HI       0.053200
     44 H8A          2.9340     0.6160    -0.1990 hc         1 7HI       0.053200
     45 H10          5.8690     0.7140    -1.1210 hc         1 7HI       0.044700
     46 H10A         4.9380     2.0890    -0.5460 hc         1 7HI       0.044700
     47 H13          0.8560     1.4050    -0.9040 hc         1 7HI       0.042033
     48 H13A        -0.8950     1.1630    -0.9570 hc         1 7HI       0.042033
     49 H13B        -0.2110     2.4610     0.0420 hc         1 7HI       0.042033
     50 H17         -5.0450    -1.7650    -0.4860 ha         1 7HI       0.127500
     51 H20         -7.2310    -0.6820    -0.5240 ha         1 7HI       0.110500
     52 H24        -10.8450     1.8740    -1.7040 ha         1 7HI       0.108500
     53 H26         -3.1970     1.9920     0.6180 ha         1 7HI       0.127500
     54 HN2         -1.9480     0.1020     0.5090 hn         1 7HI       0.153000
     55 H23         -5.4010     3.0840     0.5690 ha         1 7HI       0.110500
     56 H18         -8.6240     0.7860    -1.6760 ha         1 7HI       0.113500
     57 H16         -9.6680     4.3980     1.5910 ha         1 7HI       0.108500
     58 H27          2.7770    -4.4480     0.7630 hc         1 7HI       0.054200
     59 H27A         3.5310    -3.2380    -0.2580 hc         1 7HI       0.054200
     60 H25          1.3250    -6.3610    -2.1760 hc         1 7HI       0.031700
     61 H25A         2.1660    -6.7610    -0.6860 hc         1 7HI       0.031700
     62 H19         -0.3480    -6.5890    -0.4950 hc         1 7HI       0.034700
     63 H19A         0.5470    -5.6690     0.6970 hc         1 7HI       0.034700
     64 H14         -0.6030    -4.4110    -1.8570 hc         1 7HI       0.052200
     65 H14A        -1.4840    -4.5900    -0.3480 hc         1 7HI       0.052200
     66 H9           4.5780     0.9890     1.6480 h1         1 7HI       0.027700
     67 HO4          6.6260    -0.2680     1.0420 ho         1 7HI       0.484000
     68 H11          6.6240     2.5030     1.2630 h1         1 7HI       0.087700
     69 HO3          8.7320     1.3290     0.5560 ho         1 7HI       0.435000
     70 H35          7.9160     2.2910    -1.4730 hc         1 7HI       0.023200
     71 H35A         6.8080     3.6440    -0.9210 hc         1 7HI       0.023200
     72 C6           0.0540     0.4730     0.9050 c3         1 7HI      -0.014100
     73 C3          -2.1110    -1.7390    -0.2920 c          1 7HI       0.656700
     74 H15         -7.4490     3.3070     1.6460 ha         1 7HI       0.113500
     75 H21        -11.3770     3.6860    -0.0780 ha         1 7HI       0.108000
@<TRIPOS>BOND
     1     1     3 1   
     2     1     4 1   
     3     1    23 1   
     4     2    24 1   
     5     2    25 1   
     6     2    37 1   
     7     2    38 1   
     8     3    24 1   
     9     3    28 2   
    10     4     5 1   
    11     4    41 1   
    12     4    42 1   
    13     5    29 1   
    14     5    43 1   
    15     5    44 1   
    16     6    29 1   
    17     6    31 1   
    18     6    45 1   
    19     6    46 1   
    20     7    47 1   
    21     7    48 1   
    22     7    49 1   
    23     7    72 1   
    24     8    12 ar  
    25     8    21 ar  
    26     8    74 1   
    27     9    10 ar  
    28     9    17 ar  
    29     9    50 1   
    30    10    19 ar  
    31    10    51 1   
    32    11    13 ar  
    33    11    21 ar  
    34    11    75 1   
    35    12    19 1   
    36    12    20 ar  
    37    13    20 ar  
    38    13    52 1   
    39    14    17 ar  
    40    14    18 ar  
    41    14    53 1   
    42    15    73 2   
    43    16    17 1   
    44    16    54 1   
    45    16    73 1   
    46    18    19 ar  
    47    18    55 1   
    48    20    56 1   
    49    21    57 1   
    50    22    23 2   
    51    22    28 1   
    52    22    73 1   
    53    23    72 1   
    54    24    58 1   
    55    24    59 1   
    56    25    26 1   
    57    25    60 1   
    58    25    61 1   
    59    26    27 1   
    60    26    62 1   
    61    26    63 1   
    62    27    28 1   
    63    27    64 1   
    64    27    65 1   
    65    29    30 1   
    66    29    66 1   
    67    30    67 1   
    68    31    32 1   
    69    31    33 1   
    70    31    68 1   
    71    32    69 1   
    72    33    34 1   
    73    33    70 1   
    74    33    71 1   
    75    34    35 1   
    76    34    36 1   
    77    39    72 1   
    78    40    72 1   
@<TRIPOS>SUBSTRUCTURE
     1 7HI         1 TEMP              0 ****  ****    0 ROOT
