@<TRIPOS>MOLECULE
7HJ
   85    88     1     0     0
SMALL
bcc


@<TRIPOS>ATOM
      1 C37         -2.2580    -0.5790     0.9900 c          1 7HJ       0.678300
      2 O46         -1.5590    -0.6500     1.9990 o          1 7HJ      -0.617100
      3 C38         -3.2840     0.4660     0.7930 ce         1 7HJ      -0.246200
      4 C39         -3.3980     1.4870     1.6470 cf         1 7HJ      -0.028200
      5 C40         -4.3390     2.6000     1.5510 ca         1 7HJ      -0.077800
      6 C41         -5.1710     2.7990     0.4440 ca         1 7HJ      -0.105500
      7 C42         -6.0460     3.8700     0.4040 ca         1 7HJ      -0.132500
      8 C43         -6.1090     4.7650     1.4680 ca         1 7HJ      -0.114000
      9 C44         -5.2870     4.5820     2.5700 ca         1 7HJ      -0.132500
     10 C45         -4.4070     3.5100     2.6080 ca         1 7HJ      -0.105500
     11 C02          0.1130    -2.1120    -0.6620 c          1 7HJ       0.653100
     12 C27         -1.2190    -2.5550    -0.0390 c3         1 7HJ       0.048700
     13 C28         -1.8150    -3.7290    -0.7950 c3         1 7HJ      -0.164400
     14 C29         -2.9930    -4.3480    -0.0610 c          1 7HJ       0.668100
     15 N30         -3.6070    -5.3860    -0.6650 n          1 7HJ      -0.482800
     16 C31         -3.1960    -5.9560    -1.9400 c3         1 7HJ       0.099500
     17 C32         -2.2360    -7.1260    -1.7860 c3         1 7HJ      -0.112600
     18 C33         -4.7350    -6.0340    -0.0120 c3         1 7HJ       0.099500
     19 C34         -6.0710    -5.4590    -0.4550 c3         1 7HJ      -0.112600
     20 O35         -3.3500    -3.9270     1.0320 o          1 7HJ      -0.596100
     21 N36         -2.1350    -1.4370    -0.0380 ns         1 7HJ      -0.557900
     22 N03          0.8490    -1.3320     0.1490 ns         1 7HJ      -0.551900
     23 C04          2.0580    -0.6740    -0.2640 c3         1 7HJ       0.032700
     24 C05          3.1130    -0.8130     0.8280 c          1 7HJ       0.657100
     25 O18          2.7980    -0.8640     2.0080 o          1 7HJ      -0.597100
     26 C19          1.8280     0.8290    -0.5290 c3         1 7HJ      -0.046100
     27 C20          0.7310     1.0660    -1.5260 ca         1 7HJ      -0.095300
     28 C21         -0.5140     1.5300    -1.1180 ca         1 7HJ      -0.089000
     29 C26          0.9270     0.8000    -2.8800 ca         1 7HJ      -0.089000
     30 C22         -1.5450     1.7320    -2.0260 ca         1 7HJ      -0.171000
     31 C25         -0.0870     0.9940    -3.8050 ca         1 7HJ      -0.171000
     32 C23         -1.3100     1.4560    -3.3570 ca         1 7HJ       0.131900
     33 F24         -2.2990     1.6470    -4.2480 f          1 7HJ      -0.147900
     34 C11          8.2240     2.4020     0.0230 ca         1 7HJ      -0.106000
     35 C10          8.5360     1.0930    -0.2050 ca         1 7HJ      -0.131000
     36 C12          7.0200     2.7480     0.6830 ca         1 7HJ      -0.041000
     37 C14          4.9470     2.1000     1.7840 ca         1 7HJ      -0.122000
     38 C13          6.1330     1.7220     1.1080 ca         1 7HJ      -0.019000
     39 C15          4.6540     3.4180     2.0110 ca         1 7HJ      -0.123000
     40 N06          4.3760    -0.7970     0.3830 ns         1 7HJ      -0.568900
     41 C07          5.5510    -0.7640     1.2310 c3         1 7HJ       0.144300
     42 C08          6.4740     0.3630     0.8470 ca         1 7HJ      -0.103300
     43 C09          7.6520     0.0750     0.2090 ca         1 7HJ      -0.115000
     44 C16          5.5300     4.4320     1.5760 ca         1 7HJ      -0.124000
     45 C17          6.6890     4.1010     0.9320 ca         1 7HJ      -0.118000
     46 H33         -3.9320     0.3780    -0.0720 ha         1 7HJ       0.129000
     47 H34         -2.7300     1.5140     2.5020 ha         1 7HJ       0.148000
     48 H35         -5.1360     2.1200    -0.3980 ha         1 7HJ       0.132000
     49 H36         -6.6800     4.0120    -0.4620 ha         1 7HJ       0.133500
     50 H37         -6.7940     5.6020     1.4330 ha         1 7HJ       0.133000
     51 H38         -5.3290     5.2740     3.4010 ha         1 7HJ       0.133500
     52 H39         -3.7650     3.3730     3.4700 ha         1 7HJ       0.132000
     53 H19         -1.0410    -2.8410     0.9990 h1         1 7HJ       0.111700
     54 H21         -2.1110    -3.4090    -1.7980 hc         1 7HJ       0.079200
     55 H20         -1.0440    -4.4880    -0.9460 hc         1 7HJ       0.079200
     56 H23         -4.0980    -6.2840    -2.4610 h1         1 7HJ       0.052450
     57 H22         -2.7590    -5.1880    -2.5750 h1         1 7HJ       0.052450
     58 H26         -1.9830    -7.5360    -2.7640 hc         1 7HJ       0.041367
     59 H24         -1.3090    -6.8210    -1.2990 hc         1 7HJ       0.041367
     60 H25         -2.6800    -7.9260    -1.1940 hc         1 7HJ       0.041367
     61 H28         -4.6920    -7.0990    -0.2480 h1         1 7HJ       0.052450
     62 H27         -4.6250    -5.9500     1.0670 h1         1 7HJ       0.052450
     63 H31         -6.1520    -4.4050    -0.1920 hc         1 7HJ       0.041367
     64 H29         -6.2040    -5.5520    -1.5340 hc         1 7HJ       0.041367
     65 H30         -6.8910    -5.9920     0.0280 hc         1 7HJ       0.041367
     66 H32         -2.6910    -1.2860    -0.8660 hn         1 7HJ       0.320500
     67 H1           0.4790    -1.1030     1.0620 hn         1 7HJ       0.358500
     68 H2           2.4020    -1.1520    -1.1820 h1         1 7HJ       0.086700
     69 H13          1.5790     1.3200     0.4150 hc         1 7HJ       0.063700
     70 H14          2.7640     1.2700    -0.8790 hc         1 7HJ       0.063700
     71 H15         -0.6900     1.7480    -0.0710 ha         1 7HJ       0.137000
     72 H18          1.8870     0.4380    -3.2250 ha         1 7HJ       0.137000
     73 H16         -2.5090     2.0990    -1.7000 ha         1 7HJ       0.149000
     74 H17          0.0720     0.7910    -4.8560 ha         1 7HJ       0.149000
     75 H7           9.4570     0.8280    -0.7070 ha         1 7HJ       0.134000
     76 H9           4.2630     1.3450     2.1460 ha         1 7HJ       0.147000
     77 H10          3.7430     3.6850     2.5310 ha         1 7HJ       0.134000
     78 H3           4.5340    -0.7990    -0.6130 hn         1 7HJ       0.316500
     79 H4           5.2210    -0.6800     2.2660 h1         1 7HJ       0.066200
     80 H5           6.0880    -1.7110     1.1490 h1         1 7HJ       0.066200
     81 H6           7.9130    -0.9580     0.0130 ha         1 7HJ       0.129000
     82 H11          5.2840     5.4700     1.7590 ha         1 7HJ       0.132000
     83 H12          7.3730     4.8740     0.6030 ha         1 7HJ       0.131000
     84 H8           8.8940     3.1920    -0.2950 ha         1 7HJ       0.133000
     85 O01          0.4480    -2.4330    -1.7890 o          1 7HJ      -0.616100
@<TRIPOS>BOND
     1     1     2 2   
     2     1     3 1   
     3     1    21 1   
     4     3     4 2   
     5     3    46 1   
     6     4     5 1   
     7     4    47 1   
     8     5     6 ar  
     9     5    10 ar  
    10     6     7 ar  
    11     6    48 1   
    12     7     8 ar  
    13     7    49 1   
    14     8     9 ar  
    15     8    50 1   
    16     9    10 ar  
    17     9    51 1   
    18    10    52 1   
    19    11    12 1   
    20    11    22 1   
    21    11    85 2   
    22    12    13 1   
    23    12    21 1   
    24    12    53 1   
    25    13    14 1   
    26    13    54 1   
    27    13    55 1   
    28    14    15 1   
    29    14    20 2   
    30    15    16 1   
    31    15    18 1   
    32    16    17 1   
    33    16    56 1   
    34    16    57 1   
    35    17    58 1   
    36    17    59 1   
    37    17    60 1   
    38    18    19 1   
    39    18    61 1   
    40    18    62 1   
    41    19    63 1   
    42    19    64 1   
    43    19    65 1   
    44    21    66 1   
    45    22    23 1   
    46    22    67 1   
    47    23    24 1   
    48    23    26 1   
    49    23    68 1   
    50    24    25 2   
    51    24    40 1   
    52    26    27 1   
    53    26    69 1   
    54    26    70 1   
    55    27    28 ar  
    56    27    29 ar  
    57    28    30 ar  
    58    28    71 1   
    59    29    31 ar  
    60    29    72 1   
    61    30    32 ar  
    62    30    73 1   
    63    31    32 ar  
    64    31    74 1   
    65    32    33 1   
    66    34    35 ar  
    67    34    36 ar  
    68    34    84 1   
    69    35    43 ar  
    70    35    75 1   
    71    36    38 ar  
    72    36    45 ar  
    73    37    38 ar  
    74    37    39 ar  
    75    37    76 1   
    76    38    42 ar  
    77    39    44 ar  
    78    39    77 1   
    79    40    41 1   
    80    40    78 1   
    81    41    42 1   
    82    41    79 1   
    83    41    80 1   
    84    42    43 ar  
    85    43    81 1   
    86    44    45 ar  
    87    44    82 1   
    88    45    83 1   
@<TRIPOS>SUBSTRUCTURE
     1 7HJ         1 TEMP              0 ****  ****    0 ROOT
