@<TRIPOS>MOLECULE
7HJ
   85    88     1     0     0
SMALL
No Charge or Current Charge


@<TRIPOS>ATOM
      1 C37         -2.2850    -0.6600     1.0330 c          1 7HJ       0.611300
      2 O46         -1.6100    -0.6430     2.0500 o          1 7HJ      -0.617100
      3 C38         -3.3010     0.3710     0.7100 ce         1 7HJ      -0.296200
      4 C39         -3.5950     1.4400     1.5070 cf         1 7HJ      -0.078200
      5 C40         -4.5550     2.5410     1.2800 ca         1 7HJ      -0.077800
      6 C41         -5.3150     2.6320     0.0940 ca         1 7HJ      -0.087500
      7 C42         -6.2120     3.6970    -0.0980 ca         1 7HJ      -0.114500
      8 C43         -6.3590     4.6830     0.8910 ca         1 7HJ      -0.096000
      9 C44         -5.6060     4.6020     2.0730 ca         1 7HJ      -0.114500
     10 C45         -4.7090     3.5380     2.2660 ca         1 7HJ      -0.087500
     11 C02          0.2550    -2.4000    -0.1810 c          1 7HJ       0.586100
     12 C27         -1.2160    -2.7950     0.1730 c3         1 7HJ       0.048700
     13 C28         -1.7600    -3.9750    -0.6790 c3         1 7HJ      -0.164400
     14 C29         -3.0840    -4.6100    -0.2060 c          1 7HJ       0.601100
     15 N30         -3.6270    -5.7040    -0.9310 n          1 7HJ      -0.415800
     16 C31         -2.9640    -6.2990    -2.1190 c3         1 7HJ       0.099500
     17 C32         -2.0750    -7.5060    -1.7670 c3         1 7HJ      -0.112600
     18 C33         -4.9010    -6.3320    -0.5010 c3         1 7HJ       0.099500
     19 C34         -6.1250    -5.7620    -1.2390 c3         1 7HJ      -0.112600
     20 O35         -3.6570    -4.1840     0.7890 o          1 7HJ      -0.596100
     21 N36         -2.1210    -1.6210     0.0670 ns         1 7HJ      -0.490900
     22 N03          0.6640    -1.1780     0.3020 ns         1 7HJ      -0.484900
     23 C04          1.9080    -0.4790    -0.0820 c3         1 7HJ       0.032700
     24 C05          3.0750    -0.8110     0.8940 c          1 7HJ       0.590100
     25 O18          2.9300    -1.4250     1.9440 o          1 7HJ      -0.597100
     26 C19          1.6580     1.0510    -0.1810 c3         1 7HJ      -0.046100
     27 C20          0.3590     1.4380    -0.8940 ca         1 7HJ      -0.095300
     28 C21         -0.4800     2.4240    -0.3340 ca         1 7HJ      -0.071000
     29 C26         -0.0130     0.8260    -2.1110 ca         1 7HJ      -0.071000
     30 C22         -1.6770     2.7860    -0.9760 ca         1 7HJ      -0.153000
     31 C25         -1.2170     1.1820    -2.7450 ca         1 7HJ      -0.153000
     32 C23         -2.0450     2.1600    -2.1750 ca         1 7HJ       0.167000
     33 F24         -3.2010     2.5010    -2.7850 f          1 7HJ      -0.183000
     34 C11          8.7110     2.0460    -0.2740 ca         1 7HJ      -0.088000
     35 C10          8.7340     0.6590    -0.4800 ca         1 7HJ      -0.113000
     36 C12          7.6530     2.6350     0.4410 ca         1 7HJ      -0.041000
     37 C14          5.5550     2.4610     1.6710 ca         1 7HJ      -0.104000
     38 C13          6.6060     1.8330     0.9590 ca         1 7HJ      -0.019000
     39 C15          5.5530     3.8540     1.8590 ca         1 7HJ      -0.105000
     40 N06          4.3100    -0.3520     0.4940 ns         1 7HJ      -0.501900
     41 C07          5.5380    -0.4980     1.2740 c3         1 7HJ       0.144300
     42 C08          6.6330     0.4270     0.7500 ca         1 7HJ      -0.103300
     43 C09          7.7010    -0.1440     0.0280 ca         1 7HJ      -0.097000
     44 C16          6.5950     4.6380     1.3430 ca         1 7HJ      -0.106000
     45 C17          7.6430     4.0300     0.6350 ca         1 7HJ      -0.100000
     46 H33         -3.8160     0.2470    -0.2380 ha         1 7HJ       0.179000
     47 H34         -3.0450     1.5200     2.4480 ha         1 7HJ       0.198000
     48 H35         -5.2180     1.8850    -0.6890 ha         1 7HJ       0.114000
     49 H36         -6.7920     3.7590    -1.0160 ha         1 7HJ       0.115500
     50 H37         -7.0530     5.5080     0.7410 ha         1 7HJ       0.115000
     51 H38         -5.7170     5.3650     2.8410 ha         1 7HJ       0.115500
     52 H39         -4.1310     3.4910     3.1870 ha         1 7HJ       0.114000
     53 H19         -1.1870    -3.1120     1.2240 h1         1 7HJ       0.111700
     54 H21         -1.8640    -3.6870    -1.7300 hc         1 7HJ       0.079200
     55 H20         -1.0280    -4.7870    -0.7490 hc         1 7HJ       0.079200
     56 H23         -3.7400    -6.6370    -2.8190 h1         1 7HJ       0.052450
     57 H22         -2.3710    -5.5520    -2.6580 h1         1 7HJ       0.052450
     58 H26         -1.6150    -7.9150    -2.6740 hc         1 7HJ       0.041367
     59 H24         -1.2760    -7.2130    -1.0770 hc         1 7HJ       0.041367
     60 H25         -2.6660    -8.3000    -1.2950 hc         1 7HJ       0.041367
     61 H28         -4.8480    -7.4120    -0.6910 h1         1 7HJ       0.052450
     62 H27         -5.0380    -6.2090     0.5820 h1         1 7HJ       0.052450
     63 H31         -6.2200    -4.6860    -1.0500 hc         1 7HJ       0.041367
     64 H29         -6.0360    -5.9190    -2.3200 hc         1 7HJ       0.041367
     65 H30         -7.0410    -6.2550    -0.8930 hc         1 7HJ       0.041367
     66 H32         -2.7070    -1.5370    -0.7540 hn         1 7HJ       0.320500
     67 H1           0.0100    -0.7100     0.9240 hn         1 7HJ       0.358500
     68 H2           2.2180    -0.8390    -1.0720 h1         1 7HJ       0.086700
     69 H13          1.6520     1.4600     0.8380 hc         1 7HJ       0.063700
     70 H14          2.5080     1.5240    -0.6880 hc         1 7HJ       0.063700
     71 H15         -0.2080     2.9100     0.6000 ha         1 7HJ       0.119000
     72 H18          0.6240     0.0710    -2.5660 ha         1 7HJ       0.119000
     73 H16         -2.3240     3.5440    -0.5410 ha         1 7HJ       0.131000
     74 H17         -1.5050     0.7050    -3.6780 ha         1 7HJ       0.131000
     75 H7           9.5520     0.2060    -1.0350 ha         1 7HJ       0.116000
     76 H9           4.7310     1.8870     2.0840 ha         1 7HJ       0.129000
     77 H10          4.7400     4.3250     2.4080 ha         1 7HJ       0.116000
     78 H3           4.3610     0.1420    -0.3880 hn         1 7HJ       0.316500
     79 H4           5.3360    -0.2760     2.3300 h1         1 7HJ       0.066200
     80 H5           5.8670    -1.5440     1.2150 h1         1 7HJ       0.066200
     81 H6           7.7330    -1.2180    -0.1430 ha         1 7HJ       0.111000
     82 H11          6.5900     5.7160     1.4910 ha         1 7HJ       0.114000
     83 H12          8.4470     4.6450     0.2370 ha         1 7HJ       0.113000
     84 H8           9.5150     2.6610    -0.6720 ha         1 7HJ       0.115000
     85 O01          0.9830    -3.0760    -0.8970 o          1 7HJ      -0.616100
@<TRIPOS>BOND
     1     1     2 2   
     2     1     3 1   
     3     1    21 1   
     4     3     4 2   
     5     3    46 1   
     6     4     5 1   
     7     4    47 1   
     8     5     6 ar  
     9     5    10 ar  
    10     6     7 ar  
    11     6    48 1   
    12     7     8 ar  
    13     7    49 1   
    14     8     9 ar  
    15     8    50 1   
    16     9    10 ar  
    17     9    51 1   
    18    10    52 1   
    19    11    12 1   
    20    11    22 1   
    21    11    85 2   
    22    12    13 1   
    23    12    21 1   
    24    12    53 1   
    25    13    14 1   
    26    13    54 1   
    27    13    55 1   
    28    14    15 1   
    29    14    20 2   
    30    15    16 1   
    31    15    18 1   
    32    16    17 1   
    33    16    56 1   
    34    16    57 1   
    35    17    58 1   
    36    17    59 1   
    37    17    60 1   
    38    18    19 1   
    39    18    61 1   
    40    18    62 1   
    41    19    63 1   
    42    19    64 1   
    43    19    65 1   
    44    21    66 1   
    45    22    23 1   
    46    22    67 1   
    47    23    24 1   
    48    23    26 1   
    49    23    68 1   
    50    24    25 2   
    51    24    40 1   
    52    26    27 1   
    53    26    69 1   
    54    26    70 1   
    55    27    28 ar  
    56    27    29 ar  
    57    28    30 ar  
    58    28    71 1   
    59    29    31 ar  
    60    29    72 1   
    61    30    32 ar  
    62    30    73 1   
    63    31    32 ar  
    64    31    74 1   
    65    32    33 1   
    66    34    35 ar  
    67    34    36 ar  
    68    34    84 1   
    69    35    43 ar  
    70    35    75 1   
    71    36    38 ar  
    72    36    45 ar  
    73    37    38 ar  
    74    37    39 ar  
    75    37    76 1   
    76    38    42 ar  
    77    39    44 ar  
    78    39    77 1   
    79    40    41 1   
    80    40    78 1   
    81    41    42 1   
    82    41    79 1   
    83    41    80 1   
    84    42    43 ar  
    85    43    81 1   
    86    44    45 ar  
    87    44    82 1   
    88    45    83 1   
@<TRIPOS>SUBSTRUCTURE
     1 7HJ         1 TEMP              0 ****  ****    0 ROOT
