@<TRIPOS>MOLECULE
7HK
   46    49     1     0     0
SMALL
No Charge or Current Charge


@<TRIPOS>ATOM
      1 O2          -0.3840    -3.5390    -0.3420 o          1 7HK      -0.556000
      2 C18         -0.5210    -2.3310    -0.2110 c          1 7HK       0.599600
      3 N4          -1.7930    -1.8070    -0.2090 ns         1 7HK      -0.398100
      4 C19         -2.2690    -0.4850    -0.0440 ca         1 7HK       0.066600
      5 C6          -1.5740     0.4850     0.7140 ca         1 7HK       0.250000
      6 C5          -2.1100     1.7740     0.8610 ca         1 7HK      -0.133000
      7 C4          -3.3320     2.1090     0.2550 ca         1 7HK      -0.087000
      8 C20         -3.5030    -0.1470    -0.6320 ca         1 7HK      -0.117000
      9 C3          -4.0360     1.1490    -0.4940 ca         1 7HK      -0.065300
     10 C2          -5.3710     1.5010    -1.1420 c3         1 7HK      -0.092100
     11 C1          -6.5370     1.1010    -0.2340 c          1 7HK       0.587100
     12 O3          -7.1560    -0.0420    -0.6710 os         1 7HK      -0.449100
     13 C21         -8.2690    -0.5430     0.0940 c3         1 7HK       0.151900
     14 O1          -6.8670     1.7290     0.7630 o          1 7HK      -0.472000
     15 C17          0.6780    -1.4280    -0.1070 ca         1 7HK      -0.212600
     16 C7           0.6840    -0.2290     0.6270 ca         1 7HK       0.357000
     17 N1          -0.3950     0.1810     1.3750 na         1 7HK      -0.934000
     18 C16          1.8660    -1.8230    -0.7600 ca         1 7HK      -0.001000
     19 C15          3.0150    -1.0220    -0.6960 ca         1 7HK      -0.198000
     20 C9           3.0040     0.1690     0.0400 ca         1 7HK       0.371000
     21 C8           1.8360     0.5620     0.6940 ca         1 7HK      -0.249000
     22 N2           4.1220     0.9950     0.1160 nu         1 7HK      -0.985000
     23 C10          5.4910     0.7750    -0.0180 ca         1 7HK       0.356000
     24 C14          6.3260     1.8420    -0.3470 ca         1 7HK      -0.227500
     25 C13          7.7020     1.6160    -0.4640 ca         1 7HK       0.364900
     26 N3           8.2670     0.4050    -0.2590 nb         1 7HK      -0.685000
     27 C12          7.4530    -0.6200     0.0770 ca         1 7HK       0.364900
     28 C11          6.0670    -0.4770     0.2110 ca         1 7HK      -0.227500
     29 H14         -2.5120    -2.5040    -0.3510 hn         1 7HK       0.322500
     30 H4          -1.5800     2.5180     1.4500 ha         1 7HK       0.116000
     31 H3          -3.7360     3.1120     0.3780 ha         1 7HK       0.118000
     32 H15         -4.0480    -0.8940    -1.2050 ha         1 7HK       0.120000
     33 H1          -5.4250     2.5810    -1.3200 hc         1 7HK       0.079700
     34 H2          -5.4590     0.9720    -2.0980 hc         1 7HK       0.079700
     35 H212        -7.9620    -0.7840     1.1200 h1         1 7HK       0.049033
     36 H211        -9.0790     0.1960     0.1370 h1         1 7HK       0.049033
     37 H213        -8.6670    -1.4570    -0.3650 h1         1 7HK       0.049033
     38 H5          -0.2760     0.4160     2.3560 hn         1 7HK       0.462000
     39 H13          1.8950    -2.7460    -1.3370 ha         1 7HK       0.137000
     40 H12          3.9060    -1.3250    -1.2370 ha         1 7HK       0.132000
     41 H6           1.8240     1.4790     1.2730 ha         1 7HK       0.114000
     42 H7           3.8880     1.9660     0.3220 hn         1 7HK       0.496000
     43 H11          5.9250     2.8340    -0.5220 ha         1 7HK       0.127500
     44 H10          8.3780     2.4280    -0.7290 h4         1 7HK       0.018600
     45 H9           7.9310    -1.5830     0.2500 h4         1 7HK       0.018600
     46 H8           5.4670    -1.3290     0.5100 ha         1 7HK       0.127500
@<TRIPOS>BOND
     1     1     2 2   
     2     2     3 1   
     3     2    15 1   
     4     3     4 1   
     5     3    29 1   
     6     4     5 ar  
     7     4     8 ar  
     8     5     6 ar  
     9     5    17 1   
    10     6     7 ar  
    11     6    30 1   
    12     7     9 ar  
    13     7    31 1   
    14     8     9 ar  
    15     8    32 1   
    16     9    10 1   
    17    10    11 1   
    18    10    33 1   
    19    10    34 1   
    20    11    12 1   
    21    11    14 2   
    22    12    13 1   
    23    13    35 1   
    24    13    36 1   
    25    13    37 1   
    26    15    16 ar  
    27    15    18 ar  
    28    16    17 1   
    29    16    21 ar  
    30    17    38 1   
    31    18    19 ar  
    32    18    39 1   
    33    19    20 ar  
    34    19    40 1   
    35    20    21 ar  
    36    20    22 1   
    37    21    41 1   
    38    22    23 1   
    39    22    42 1   
    40    23    24 ar  
    41    23    28 ar  
    42    24    25 ar  
    43    24    43 1   
    44    25    26 ar  
    45    25    44 1   
    46    26    27 ar  
    47    27    28 ar  
    48    27    45 1   
    49    28    46 1   
@<TRIPOS>SUBSTRUCTURE
     1 7HK         1 TEMP              0 ****  ****    0 ROOT
