@<TRIPOS>MOLECULE
7HK
   46    49     1     0     0
SMALL
bcc


@<TRIPOS>ATOM
      1 O2          -0.0320    -3.5100    -0.2320 o          1 7HK      -0.631500
      2 C18         -0.2860    -2.3290    -0.0440 c          1 7HK       0.742100
      3 N4          -1.5720    -1.9500     0.1840 ns         1 7HK      -0.465100
      4 C19         -2.1480    -0.6740     0.1250 ca         1 7HK       0.066600
      5 C6          -1.5560     0.4220     0.7470 ca         1 7HK       0.111600
      6 C5          -2.2140     1.6470     0.7260 ca         1 7HK      -0.151000
      7 C4          -3.4550     1.7780     0.1240 ca         1 7HK      -0.105000
      8 C20         -3.3820    -0.5260    -0.4980 ca         1 7HK      -0.135000
      9 C3          -4.0530     0.6890    -0.4990 ca         1 7HK      -0.065300
     10 C2          -5.3950     0.8130    -1.1540 c3         1 7HK      -0.092100
     11 C1          -6.5320     0.5250    -0.2010 c          1 7HK       0.636100
     12 O3          -7.7030     0.6490    -0.8100 os         1 7HK      -0.425900
     13 C21         -8.8790     0.4040    -0.0380 c3         1 7HK       0.128700
     14 O1          -6.4070     0.2220     0.9570 o          1 7HK      -0.521000
     15 C17          0.7970    -1.3190    -0.0520 ca         1 7HK      -0.212600
     16 C7           0.7950    -0.1340     0.6980 ca         1 7HK       0.218600
     17 N1          -0.3270     0.2810     1.4110 na         1 7HK      -0.602000
     18 C16          1.9640    -1.6540    -0.7430 ca         1 7HK      -0.019000
     19 C15          3.1010    -0.8790    -0.7020 ca         1 7HK      -0.216000
     20 C9           3.1160     0.2680     0.1000 ca         1 7HK       0.232600
     21 C8           1.9550     0.6290     0.7790 ca         1 7HK      -0.267000
     22 N2           4.2070     1.1120     0.1930 nu         1 7HK      -0.653000
     23 C10          5.5380     0.8360    -0.0050 ca         1 7HK       0.217600
     24 C14          6.4220     1.9020    -0.2090 ca         1 7HK      -0.310800
     25 C13          7.7660     1.6390    -0.3820 ca         1 7HK       0.430200
     26 N3           8.2980     0.4190    -0.3710 nb         1 7HK      -0.685000
     27 C12          7.4560    -0.5860    -0.1610 ca         1 7HK       0.430200
     28 C11          6.0930    -0.4460     0.0310 ca         1 7HK      -0.310800
     29 H14         -2.2280    -2.7170     0.1330 hn         1 7HK       0.322500
     30 H4          -1.7500     2.5030     1.2010 ha         1 7HK       0.134000
     31 H3          -3.9490     2.7410     0.1300 ha         1 7HK       0.136000
     32 H15         -3.8310    -1.3870    -0.9810 ha         1 7HK       0.138000
     33 H1          -5.5380     1.8160    -1.5650 hc         1 7HK       0.079700
     34 H2          -5.4790     0.1280    -2.0020 hc         1 7HK       0.079700
     35 H212        -8.8910    -0.6110     0.3580 h1         1 7HK       0.049033
     36 H211        -8.9700     1.1110     0.7860 h1         1 7HK       0.049033
     37 H213        -9.7160     0.5350    -0.7180 h1         1 7HK       0.049033
     38 H5          -0.1310     1.0690     2.0110 hn         1 7HK       0.406800
     39 H13          1.9730    -2.5550    -1.3420 ha         1 7HK       0.155000
     40 H12          3.9540    -1.1590    -1.3020 ha         1 7HK       0.150000
     41 H6           1.9550     1.5280     1.3860 ha         1 7HK       0.132000
     42 H7           3.9980     2.0640     0.4490 hn         1 7HK       0.440800
     43 H11          6.0620     2.9230    -0.2370 ha         1 7HK       0.145500
     44 H10          8.4500     2.4650    -0.5470 h4         1 7HK       0.018600
     45 H9           7.8880    -1.5810    -0.1330 h4         1 7HK       0.018600
     46 H8           5.4980    -1.3260     0.2300 ha         1 7HK       0.145500
@<TRIPOS>BOND
     1     1     2 2   
     2     2     3 1   
     3     2    15 1   
     4     3     4 1   
     5     3    29 1   
     6     4     5 ar  
     7     4     8 ar  
     8     5     6 ar  
     9     5    17 1   
    10     6     7 ar  
    11     6    30 1   
    12     7     9 ar  
    13     7    31 1   
    14     8     9 ar  
    15     8    32 1   
    16     9    10 1   
    17    10    11 1   
    18    10    33 1   
    19    10    34 1   
    20    11    12 1   
    21    11    14 2   
    22    12    13 1   
    23    13    35 1   
    24    13    36 1   
    25    13    37 1   
    26    15    16 ar  
    27    15    18 ar  
    28    16    17 1   
    29    16    21 ar  
    30    17    38 1   
    31    18    19 ar  
    32    18    39 1   
    33    19    20 ar  
    34    19    40 1   
    35    20    21 ar  
    36    20    22 1   
    37    21    41 1   
    38    22    23 1   
    39    22    42 1   
    40    23    24 ar  
    41    23    28 ar  
    42    24    25 ar  
    43    24    43 1   
    44    25    26 ar  
    45    25    44 1   
    46    26    27 ar  
    47    27    28 ar  
    48    27    45 1   
    49    28    46 1   
@<TRIPOS>SUBSTRUCTURE
     1 7HK         1 TEMP              0 ****  ****    0 ROOT
