@<TRIPOS>MOLECULE
7HL
   42    44     1     0     0
SMALL
No Charge or Current Charge


@<TRIPOS>ATOM
      1 C18          0.2620     3.3210    -1.0760 ca         1 7HL      -0.071000
      2 C17         -2.6080    -1.5460    -0.0360 ca         1 7HL      -0.073300
      3 C15          1.0730     2.4420    -0.3200 ca         1 7HL      -0.130600
      4 C19          1.7810     2.9660     0.7920 ca         1 7HL      -0.071000
      5 C20         -3.5260    -1.6410     1.0300 ca         1 7HL      -0.081000
      6 C21         -2.8310    -0.6030    -1.0600 ca         1 7HL      -0.081000
      7 C22          0.1600     4.6800    -0.7340 ca         1 7HL      -0.132500
      8 C23          1.6740     4.3270     1.1290 ca         1 7HL      -0.132500
      9 C24         -4.6540    -0.8020     1.0690 ca         1 7HL      -0.115000
     10 C11         -1.3810    -2.4480    -0.0840 c3         1 7HL       0.214900
     11 C12          2.6230    -4.0160    -0.0180 ca         1 7HL      -0.117000
     12 C27         -4.8690     0.1340     0.0460 ca         1 7HL       0.119000
     13 Cl1         -6.2790     1.1840     0.0980 cl         1 7HL      -0.229000
     14 C2           2.1670    -1.2340     0.0640 ca         1 7HL      -0.058000
     15 C3           1.0730    -2.1340     0.0000 ca         1 7HL       0.118100
     16 C4           3.4960    -1.7340     0.1400 ca         1 7HL      -0.134600
     17 N5           1.9520     0.1720     0.0850 ns         1 7HL      -0.120000
     18 O6          -0.2110    -1.6240     0.0440 os         1 7HL      -0.327100
     19 C7           1.3110    -3.5250    -0.0490 ca         1 7HL      -0.210000
     20 C8           3.7050    -3.1300     0.0840 ca         1 7HL      -0.103000
     21 C9           4.6980    -0.8140     0.2660 c          1 7HL       0.721600
     22 C10          1.1560     0.9770    -0.7170 c          1 7HL       0.613700
     23 O13          5.7170    -1.1110    -0.3410 o          1 7HL      -0.716000
     24 O14          4.6170     0.1610     1.0010 o          1 7HL      -0.716000
     25 O16          0.5760     0.5520    -1.7130 o          1 7HL      -0.627100
     26 C25         -3.9590     0.2350    -1.0190 ca         1 7HL      -0.115000
     27 C26          0.8650     5.1850     0.3680 ca         1 7HL      -0.109000
     28 H35         -0.2970     2.9510    -1.9340 ha         1 7HL       0.139000
     29 H36          2.4200     2.3370     1.4080 ha         1 7HL       0.139000
     30 H37         -3.3650    -2.3630     1.8290 ha         1 7HL       0.134000
     31 H38         -2.1260    -0.5180    -1.8850 ha         1 7HL       0.134000
     32 H39         -0.4690     5.3420    -1.3250 ha         1 7HL       0.105000
     33 H40          2.2220     4.7180     1.9840 ha         1 7HL       0.105000
     34 H41         -5.3600    -0.8770     1.8930 ha         1 7HL       0.122000
     35 H32         -1.4270    -3.1830     0.7290 h1         1 7HL       0.034700
     36 H31         -1.3690    -2.9890    -1.0390 h1         1 7HL       0.034700
     37 H33          2.8030    -5.0880    -0.0550 ha         1 7HL       0.089000
     38 H28          2.4820     0.6610     0.7930 hn         1 7HL       0.206000
     39 H29          0.4940    -4.2380    -0.1000 ha         1 7HL       0.092000
     40 H30          4.7160    -3.5300     0.1270 ha         1 7HL       0.130000
     41 H42         -4.1270     0.9630    -1.8090 ha         1 7HL       0.122000
     42 H43          0.7860     6.2370     0.6320 ha         1 7HL       0.097000
@<TRIPOS>BOND
     1     1     3 ar  
     2     1     7 ar  
     3     1    28 1   
     4     2     5 ar  
     5     2     6 ar  
     6     2    10 1   
     7     3     4 ar  
     8     3    22 1   
     9     4     8 ar  
    10     4    29 1   
    11     5     9 ar  
    12     5    30 1   
    13     6    26 ar  
    14     6    31 1   
    15     7    27 ar  
    16     7    32 1   
    17     8    27 ar  
    18     8    33 1   
    19     9    12 ar  
    20     9    34 1   
    21    10    18 1   
    22    10    35 1   
    23    10    36 1   
    24    11    19 ar  
    25    11    20 ar  
    26    11    37 1   
    27    12    13 1   
    28    12    26 ar  
    29    14    15 ar  
    30    14    16 ar  
    31    14    17 1   
    32    15    18 1   
    33    15    19 ar  
    34    16    20 ar  
    35    16    21 1   
    36    17    22 1   
    37    17    38 1   
    38    19    39 1   
    39    20    40 1   
    40    21    23 1   
    41    21    24 1   
    42    22    25 2   
    43    26    41 1   
    44    27    42 1   
@<TRIPOS>SUBSTRUCTURE
     1 7HL         1 TEMP              0 ****  ****    0 ROOT
