@<TRIPOS>MOLECULE
7HL
   42    44     1     0     0
SMALL
abcg2


@<TRIPOS>ATOM
      1 C18          0.0940     3.1280    -0.8280 ca         1 7HL      -0.071000
      2 C17         -2.6010    -1.5270    -0.0630 ca         1 7HL      -0.073300
      3 C15          1.1630     2.3960    -0.3150 ca         1 7HL      -0.130600
      4 C19          2.1800     3.0640     0.3650 ca         1 7HL      -0.071000
      5 C20         -3.6790    -1.9670     0.6940 ca         1 7HL      -0.081000
      6 C21         -2.6960    -0.2980    -0.7150 ca         1 7HL      -0.081000
      7 C22          0.0270     4.5000    -0.6400 ca         1 7HL      -0.132500
      8 C23          2.1220     4.4400     0.5350 ca         1 7HL      -0.132500
      9 C24         -4.8380    -1.2100     0.8030 ca         1 7HL      -0.115000
     10 C11         -1.3660    -2.3690    -0.1910 c3         1 7HL       0.214900
     11 C12          2.5570    -3.8970    -0.1190 ca         1 7HL      -0.117000
     12 C27         -4.9050     0.0080     0.1480 ca         1 7HL       0.119000
     13 CL1         -6.3410     0.9710     0.2810 cl         1 7HL      -0.229000
     14 C2           2.0470    -1.1950     0.2440 ca         1 7HL      -0.058000
     15 C3           0.9800    -2.0910     0.0640 ca         1 7HL       0.118100
     16 C4           3.3600    -1.6660     0.3210 ca         1 7HL      -0.134600
     17 N5           1.7810     0.1770     0.3970 ns         1 7HL      -0.120000
     18 O6          -0.2550    -1.5680     0.1580 os         1 7HL      -0.327100
     19 C7           1.2450    -3.4390    -0.1460 ca         1 7HL      -0.210000
     20 C8           3.6010    -3.0260     0.1260 ca         1 7HL      -0.103000
     21 C9           4.5330    -0.7520     0.6630 c          1 7HL       0.721600
     22 C10          1.1880     0.9210    -0.5670 c          1 7HL       0.613700
     23 O13          5.6580    -1.1280     0.3060 o          1 7HL      -0.716000
     24 O14          4.2710     0.2900     1.3120 o          1 7HL      -0.716000
     25 O16          0.6800     0.4510    -1.5720 o          1 7HL      -0.627100
     26 C25         -3.8410     0.4730    -0.6120 ca         1 7HL      -0.115000
     27 C26          1.0430     5.1600     0.0410 ca         1 7HL      -0.109000
     28 H35         -0.6950     2.6210    -1.3670 ha         1 7HL       0.139000
     29 H36          3.0460     2.5320     0.7400 ha         1 7HL       0.139000
     30 H37         -3.6210    -2.9140     1.2170 ha         1 7HL       0.134000
     31 H38         -1.8670     0.0670    -1.3080 ha         1 7HL       0.134000
     32 H39         -0.8160     5.0550    -1.0300 ha         1 7HL       0.105000
     33 H40          2.9250     4.9490     1.0510 ha         1 7HL       0.105000
     34 H41         -5.6680    -1.5630     1.3980 ha         1 7HL       0.122000
     35 H32         -1.4440    -3.2450     0.4620 h1         1 7HL       0.034700
     36 H31         -1.2600    -2.7360    -1.2190 h1         1 7HL       0.034700
     37 H33          2.7510    -4.9500    -0.2760 ha         1 7HL       0.089000
     38 H28          2.4580     0.6180     1.0180 hn         1 7HL       0.206000
     39 H29          0.4430    -4.1480    -0.3060 ha         1 7HL       0.092000
     40 H30          4.6170    -3.3930     0.1660 ha         1 7HL       0.130000
     41 H42         -3.9050     1.4250    -1.1220 ha         1 7HL       0.122000
     42 H43          0.9950     6.2320     0.1820 ha         1 7HL       0.097000
@<TRIPOS>BOND
     1     1     3 ar  
     2     1     7 ar  
     3     1    28 1   
     4     2     5 ar  
     5     2     6 ar  
     6     2    10 1   
     7     3     4 ar  
     8     3    22 1   
     9     4     8 ar  
    10     4    29 1   
    11     5     9 ar  
    12     5    30 1   
    13     6    26 ar  
    14     6    31 1   
    15     7    27 ar  
    16     7    32 1   
    17     8    27 ar  
    18     8    33 1   
    19     9    12 ar  
    20     9    34 1   
    21    10    18 1   
    22    10    35 1   
    23    10    36 1   
    24    11    19 ar  
    25    11    20 ar  
    26    11    37 1   
    27    12    13 1   
    28    12    26 ar  
    29    14    15 ar  
    30    14    16 ar  
    31    14    17 1   
    32    15    18 1   
    33    15    19 ar  
    34    16    20 ar  
    35    16    21 1   
    36    17    22 1   
    37    17    38 1   
    38    19    39 1   
    39    20    40 1   
    40    21    23 1   
    41    21    24 1   
    42    22    25 2   
    43    26    41 1   
    44    27    42 1   
@<TRIPOS>SUBSTRUCTURE
     1 7HL         1 TEMP              0 ****  ****    0 ROOT
