@<TRIPOS>MOLECULE
7HM
   43    46     1     0     0
SMALL
bcc


@<TRIPOS>ATOM
      1 C13          1.5420     2.4280     0.0240 c3         1 7HM       0.186700
      2 C18          4.8000     0.7270     0.9750 ca         1 7HM      -0.129000
      3 C17          4.9640    -0.1300    -0.1000 ca         1 7HM       0.030400
      4 C16          4.0430    -0.1680    -1.1370 ca         1 7HM      -0.129000
      5 C15          2.9420     0.6710    -1.0890 ca         1 7HM      -0.097500
      6 C19          3.6860     1.5560     1.0090 ca         1 7HM      -0.097500
      7 C20         -1.1450    -0.8500    -1.2340 c5         1 7HM       0.155300
      8 C21         -1.1380    -2.2800    -0.8000 ca         1 7HM      -0.060300
      9 C22         -1.5800    -2.3590     0.5100 ca         1 7HM      -0.130600
     10 C23         -1.8860    -0.9970     0.9910 c          1 7HM       0.743100
     11 C27         -1.3350    -4.7210     0.4840 ca         1 7HM      -0.157000
     12 CL1          6.3470    -1.1730    -0.1540 cl         1 7HM      -0.131400
     13 C2          -3.4490     3.0230    -0.0270 ca         1 7HM      -0.131000
     14 C3          -3.2050     1.6500    -0.0590 ca         1 7HM      -0.083600
     15 C4          -1.8850     1.2090    -0.0290 ca         1 7HM       0.034600
     16 C5          -0.8220     2.1230     0.0330 ca         1 7HM       0.110100
     17 C6          -1.0820     3.4880     0.0250 ca         1 7HM      -0.244000
     18 C7          -2.4010     3.9250    -0.0060 ca         1 7HM      -0.122000
     19 O9          -5.4270     1.0550     0.4300 o          1 7HM      -0.814300
     20 O10         -4.2300    -0.3420    -0.8300 o          1 7HM      -0.814300
     21 N11         -1.5670    -0.1630    -0.0300 n          1 7HM      -0.359000
     22 O12          0.4080     1.5800     0.1000 os         1 7HM      -0.314900
     23 C14          2.7500     1.5410    -0.0180 ca         1 7HM      -0.073300
     24 C25         -0.7800    -3.4250    -1.4920 ca         1 7HM      -0.129000
     25 C26         -0.8850    -4.6450    -0.8350 ca         1 7HM      -0.124000
     26 C28         -1.6880    -3.5700     1.1740 ca         1 7HM      -0.062000
     27 H34          1.4930     3.0490    -0.8770 h1         1 7HM       0.035700
     28 H33          1.5910     3.0970     0.8880 h1         1 7HM       0.035700
     29 H37          5.5210     0.7490     1.7800 ha         1 7HM       0.142000
     30 H36          4.1830    -0.8390    -1.9730 ha         1 7HM       0.142000
     31 H35          2.2270     0.6430    -1.9020 ha         1 7HM       0.140000
     32 H38          3.5530     2.2220     1.8520 ha         1 7HM       0.140000
     33 H39         -0.1600    -0.5110    -1.5650 h1         1 7HM       0.064700
     34 H40         -1.8590    -0.6760    -2.0420 h1         1 7HM       0.064700
     35 H43         -1.4100    -5.6850     0.9680 ha         1 7HM       0.118000
     36 H29         -4.4700     3.3810    -0.0340 ha         1 7HM       0.148000
     37 H30         -0.2830     4.2160     0.0600 ha         1 7HM       0.110000
     38 H31         -2.6000     4.9890    -0.0040 ha         1 7HM       0.106000
     39 H41         -0.4300    -3.3780    -2.5160 ha         1 7HM       0.123000
     40 H42         -0.6150    -5.5550    -1.3550 ha         1 7HM       0.113000
     41 H44         -2.0380    -3.6170     2.1980 ha         1 7HM       0.144000
     42 O24         -2.3220    -0.6700     2.0810 o          1 7HM      -0.614500
     43 C8          -4.3900     0.6910    -0.1560 c          1 7HM       0.930200
@<TRIPOS>BOND
     1     1    22 1   
     2     1    23 1   
     3     1    27 1   
     4     1    28 1   
     5     2     3 ar  
     6     2     6 ar  
     7     2    29 1   
     8     3     4 ar  
     9     3    12 1   
    10     4     5 ar  
    11     4    30 1   
    12     5    23 ar  
    13     5    31 1   
    14     6    23 ar  
    15     6    32 1   
    16     7     8 1   
    17     7    21 1   
    18     7    33 1   
    19     7    34 1   
    20     8     9 ar  
    21     8    24 ar  
    22     9    10 1   
    23     9    26 ar  
    24    10    21 1   
    25    10    42 2   
    26    11    25 ar  
    27    11    26 ar  
    28    11    35 1   
    29    13    14 ar  
    30    13    18 ar  
    31    13    36 1   
    32    14    15 ar  
    33    14    43 1   
    34    15    16 ar  
    35    15    21 1   
    36    16    17 ar  
    37    16    22 1   
    38    17    18 ar  
    39    17    37 1   
    40    18    38 1   
    41    19    43 1   
    42    20    43 1   
    43    24    25 ar  
    44    24    39 1   
    45    25    40 1   
    46    26    41 1   
@<TRIPOS>SUBSTRUCTURE
     1 7HM         1 TEMP              0 ****  ****    0 ROOT
