@<TRIPOS>MOLECULE
7HM
   43    46     1     0     0
SMALL
No Charge or Current Charge


@<TRIPOS>ATOM
      1 C13          1.5340     2.4260    -0.0880 c3         1 7HM       0.209900
      2 C18          4.5150     0.2360     0.9330 ca         1 7HM      -0.111000
      3 C17          4.9660    -0.2200    -0.3160 ca         1 7HM       0.122000
      4 C16          4.3100     0.1810    -1.4910 ca         1 7HM      -0.111000
      5 C15          3.2000     1.0420    -1.4160 ca         1 7HM      -0.079500
      6 C19          3.4050     1.0960     1.0090 ca         1 7HM      -0.079500
      7 C20         -0.9500    -0.8990    -1.2040 c5         1 7HM       0.155300
      8 C21         -0.9810    -2.3140    -0.6450 ca         1 7HM      -0.060300
      9 C22         -1.6820    -2.3810     0.5440 ca         1 7HM      -0.130600
     10 C23         -2.1780    -1.0310     0.8730 c          1 7HM       0.600600
     11 C27         -1.2510    -4.7450     0.7210 ca         1 7HM      -0.139000
     12 Cl1          6.3530    -1.2970    -0.4090 cl         1 7HM      -0.223000
     13 C2          -3.5340     3.1490     0.0990 ca         1 7HM      -0.113000
     14 C3          -3.3470     1.7560    -0.0430 ca         1 7HM      -0.083600
     15 C4          -2.0280     1.2430    -0.2210 ca         1 7HM      -0.058000
     16 C5          -0.9260     2.1350    -0.1350 ca         1 7HM       0.110100
     17 C6          -1.1410     3.5240     0.0020 ca         1 7HM      -0.226000
     18 C7          -2.4430     4.0260     0.1090 ca         1 7HM      -0.104000
     19 O9          -5.5120     1.1360     0.6620 o          1 7HM      -0.709000
     20 O10         -4.6380    -0.0200    -0.9270 o          1 7HM      -0.709000
     21 N11         -1.7830    -0.1810    -0.1810 n          1 7HM      -0.199400
     22 O12          0.3530     1.6130    -0.1630 os         1 7HM      -0.338100
     23 C14          2.7430     1.5050    -0.1660 ca         1 7HM      -0.073300
     24 C25         -0.3930    -3.4670    -1.1860 ca         1 7HM      -0.111000
     25 C26         -0.5330    -4.6890    -0.4950 ca         1 7HM      -0.106000
     26 C28         -1.8350    -3.5800     1.2560 ca         1 7HM      -0.044000
     27 H34          1.5660     3.1410    -0.9210 h1         1 7HM       0.035700
     28 H33          1.5570     2.9910     0.8530 h1         1 7HM       0.035700
     29 H37          5.0240    -0.0780     1.8410 ha         1 7HM       0.124000
     30 H36          4.6590    -0.1750    -2.4560 ha         1 7HM       0.124000
     31 H35          2.6920     1.3460    -2.3290 ha         1 7HM       0.122000
     32 H38          3.0580     1.4420     1.9810 ha         1 7HM       0.122000
     33 H39          0.0780    -0.5230    -1.2610 h1         1 7HM       0.064700
     34 H40         -1.4070    -0.8490    -2.2000 h1         1 7HM       0.064700
     35 H43         -1.3520    -5.6920     1.2470 ha         1 7HM       0.100000
     36 H29         -4.5390     3.5540     0.1970 ha         1 7HM       0.130000
     37 H30         -0.3140     4.2250     0.0460 ha         1 7HM       0.092000
     38 H31         -2.6070     5.0960     0.2190 ha         1 7HM       0.088000
     39 H41          0.1630    -3.4200    -2.1210 ha         1 7HM       0.105000
     40 H42         -0.0840    -5.5930    -0.9000 ha         1 7HM       0.095000
     41 H44         -2.3890    -3.6090     2.1920 ha         1 7HM       0.126000
     42 O24         -2.7840    -0.7110     1.8900 o          1 7HM      -0.539000
     43 C8          -4.5790     0.8650    -0.0830 c          1 7HM       0.719600
@<TRIPOS>BOND
     1     1    22 1   
     2     1    23 1   
     3     1    27 1   
     4     1    28 1   
     5     2     3 ar  
     6     2     6 ar  
     7     2    29 1   
     8     3     4 ar  
     9     3    12 1   
    10     4     5 ar  
    11     4    30 1   
    12     5    23 ar  
    13     5    31 1   
    14     6    23 ar  
    15     6    32 1   
    16     7     8 1   
    17     7    21 1   
    18     7    33 1   
    19     7    34 1   
    20     8     9 ar  
    21     8    24 ar  
    22     9    10 1   
    23     9    26 ar  
    24    10    21 1   
    25    10    42 2   
    26    11    25 ar  
    27    11    26 ar  
    28    11    35 1   
    29    13    14 ar  
    30    13    18 ar  
    31    13    36 1   
    32    14    15 ar  
    33    14    43 1   
    34    15    16 ar  
    35    15    21 1   
    36    16    17 ar  
    37    16    22 1   
    38    17    18 ar  
    39    17    37 1   
    40    18    38 1   
    41    19    43 1   
    42    20    43 1   
    43    24    25 ar  
    44    24    39 1   
    45    25    40 1   
    46    26    41 1   
@<TRIPOS>SUBSTRUCTURE
     1 7HM         1 TEMP              0 ****  ****    0 ROOT
