@<TRIPOS>MOLECULE
7HN
   29    30     1     0     0
SMALL
abcg2


@<TRIPOS>ATOM
      1 OAA         -2.8810     3.2810    -0.0570 o          1 7HN      -0.713000
      2 CAM         -2.5100     2.3790    -0.8300 c          1 7HN       0.715600
      3 OAB         -2.1500     2.5260    -2.0160 o          1 7HN      -0.713000
      4 CAU         -2.5570     0.9580    -0.2770 ca         1 7HN      -0.101600
      5 CAK         -3.5770     0.6610     0.6220 ca         1 7HN      -0.092000
      6 CAJ         -3.7510    -0.6160     1.1350 ca         1 7HN      -0.174000
      7 CAN         -2.8780    -1.6240     0.7700 ca         1 7HN       0.006100
      8 OAC         -2.9540    -2.9010     1.2160 oh         1 7HN      -0.575100
      9 CAO         -1.8310    -1.3410    -0.1110 ca         1 7HN       0.091100
     10 OAD         -0.9560    -2.3070    -0.4740 oh         1 7HN      -0.552100
     11 CAV         -1.6640    -0.0630    -0.6430 ca         1 7HN      -0.071300
     12 CAL         -0.4720     0.1550    -1.5480 c3         1 7HN       0.017200
     13 CAW          0.8340    -0.0180    -0.8180 ca         1 7HN      -0.086300
     14 CAS          1.7460    -1.0130    -1.1310 ca         1 7HN       0.181000
     15 FAH          1.5010    -1.8620    -2.1270 f          1 7HN      -0.132500
     16 CAQ          2.9390    -1.1620    -0.4470 ca         1 7HN       0.077000
     17 FAF          3.7890    -2.1310    -0.7780 f          1 7HN      -0.152000
     18 CAP          3.2500    -0.2990     0.5850 ca         1 7HN       0.116000
     19 FAE          4.3910    -0.4370     1.2510 f          1 7HN      -0.154000
     20 CAR          2.3670     0.7110     0.9180 ca         1 7HN       0.077000
     21 FAG          2.6660     1.5530     1.9030 f          1 7HN      -0.152000
     22 CAT          1.1850     0.8390     0.2150 ca         1 7HN       0.181000
     23 FAI          0.3630     1.8320     0.5520 f          1 7HN      -0.132500
     24 HAK         -4.2610     1.4420     0.9240 ha         1 7HN       0.132000
     25 HAJ         -4.5660    -0.8240     1.8190 ha         1 7HN       0.091000
     26 HAC         -3.6980    -3.0070     1.8190 ho         1 7HN       0.458000
     27 HAD         -1.1450    -3.1250    -0.0010 ho         1 7HN       0.465000
     28 HAL1        -0.5100    -0.5370    -2.3890 hc         1 7HN       0.096700
     29 HAL2        -0.5220     1.1530    -1.9760 hc         1 7HN       0.096700
@<TRIPOS>BOND
     1     1     2 1   
     2     2     3 1   
     3     2     4 1   
     4     4     5 ar  
     5     4    11 ar  
     6     5     6 ar  
     7     5    24 1   
     8     6     7 ar  
     9     6    25 1   
    10     7     8 1   
    11     7     9 ar  
    12     8    26 1   
    13     9    10 1   
    14     9    11 ar  
    15    10    27 1   
    16    11    12 1   
    17    12    13 1   
    18    12    28 1   
    19    12    29 1   
    20    13    14 ar  
    21    13    22 ar  
    22    14    15 1   
    23    14    16 ar  
    24    16    17 1   
    25    16    18 ar  
    26    18    19 1   
    27    18    20 ar  
    28    20    21 1   
    29    20    22 ar  
    30    22    23 1   
@<TRIPOS>SUBSTRUCTURE
     1 7HN         1 TEMP              0 ****  ****    0 ROOT
