@<TRIPOS>MOLECULE
7HN
   29    30     1     0     0
SMALL
No Charge or Current Charge


@<TRIPOS>ATOM
      1 OAA         -2.5280     3.2810    -0.1700 o          1 7HN      -0.713000
      2 CAM         -2.5640     2.3260    -0.9320 c          1 7HN       0.715600
      3 OAB         -2.6630     2.4360    -2.1460 o          1 7HN      -0.713000
      4 CAU         -2.6190     0.9380    -0.3330 ca         1 7HN      -0.101600
      5 CAK         -3.6910     0.6440     0.5390 ca         1 7HN      -0.092000
      6 CAJ         -3.8310    -0.6300     1.1090 ca         1 7HN      -0.174000
      7 CAN         -2.9000    -1.6300     0.8090 ca         1 7HN       0.006100
      8 OAC         -3.0410    -2.8780     1.3550 oh         1 7HN      -0.575100
      9 CAO         -1.8190    -1.3540    -0.0510 ca         1 7HN       0.091100
     10 OAD         -0.9490    -2.3730    -0.3110 oh         1 7HN      -0.552100
     11 CAV         -1.6510    -0.0680    -0.6240 ca         1 7HN      -0.071300
     12 CAL         -0.4340     0.2060    -1.5280 c3         1 7HN       0.017200
     13 CAW          0.9050     0.0180    -0.8000 ca         1 7HN      -0.086300
     14 CAS          1.8500    -0.9410    -1.2390 ca         1 7HN       0.181000
     15 FAH          1.5960    -1.7050    -2.3280 f          1 7HN      -0.132500
     16 CAQ          3.0700    -1.1130    -0.5570 ca         1 7HN       0.077000
     17 FAF          3.9640    -2.0360    -0.9880 f          1 7HN      -0.152000
     18 CAP          3.3640    -0.3260     0.5700 ca         1 7HN       0.116000
     19 FAE          4.5380    -0.4910     1.2250 f          1 7HN      -0.154000
     20 CAR          2.4400     0.6360     1.0110 ca         1 7HN       0.077000
     21 FAG          2.7260     1.4010     2.0930 f          1 7HN      -0.152000
     22 CAT          1.2210     0.8080     0.3290 ca         1 7HN       0.181000
     23 FAI          0.3510     1.7490     0.7630 f          1 7HN      -0.132500
     24 HAK         -4.4270     1.4130     0.7650 ha         1 7HN       0.132000
     25 HAJ         -4.6680    -0.8330     1.7740 ha         1 7HN       0.091000
     26 HAC         -3.8440    -2.8840     1.9230 ho         1 7HN       0.458000
     27 HAD         -1.2950    -3.1410     0.1970 ho         1 7HN       0.465000
     28 HAL1        -0.5050    -0.4450    -2.4060 hc         1 7HN       0.096700
     29 HAL2        -0.4480     1.2180    -1.9420 hc         1 7HN       0.096700
@<TRIPOS>BOND
     1     1     2 1   
     2     2     3 1   
     3     2     4 1   
     4     4     5 ar  
     5     4    11 ar  
     6     5     6 ar  
     7     5    24 1   
     8     6     7 ar  
     9     6    25 1   
    10     7     8 1   
    11     7     9 ar  
    12     8    26 1   
    13     9    10 1   
    14     9    11 ar  
    15    10    27 1   
    16    11    12 1   
    17    12    13 1   
    18    12    28 1   
    19    12    29 1   
    20    13    14 ar  
    21    13    22 ar  
    22    14    15 1   
    23    14    16 ar  
    24    16    17 1   
    25    16    18 ar  
    26    18    19 1   
    27    18    20 ar  
    28    20    21 1   
    29    20    22 ar  
    30    22    23 1   
@<TRIPOS>SUBSTRUCTURE
     1 7HN         1 TEMP              0 ****  ****    0 ROOT
