@<TRIPOS>MOLECULE
7HO
   48    50     1     0     0
SMALL
bcc


@<TRIPOS>ATOM
      1 C13          1.8130    -2.2150     1.0620 c3         1 7HO       0.192700
      2 C18          5.0100    -0.5290    -0.0780 ca         1 7HO      -0.131500
      3 C17          4.6950     0.8010     0.1350 ca         1 7HO       0.023400
      4 C16          3.4570     1.1760     0.6360 ca         1 7HO      -0.131500
      5 C15          2.5190     0.1970     0.9270 ca         1 7HO      -0.096000
      6 C19          4.0600    -1.4970     0.2170 ca         1 7HO      -0.096000
      7 C20         -1.9160     0.0280    -0.2120 c          1 7HO       0.719700
      8 C21         -2.0100     1.2060    -1.1300 ca         1 7HO      -0.183600
      9 C23         -2.8650     1.1490    -2.2240 ca         1 7HO      -0.063000
     10 C24         -3.0000     2.2290    -3.0860 ca         1 7HO      -0.216000
     11 C27         -1.2680     2.3730    -0.8840 ca         1 7HO       0.202100
     12 CL1          5.8690     2.0250    -0.2330 cl         1 7HO      -0.155400
     13 C2          -2.6530    -4.4210     0.4780 ca         1 7HO      -0.142000
     14 C3          -2.7200    -3.1960    -0.1890 ca         1 7HO      -0.098600
     15 C4          -1.6070    -2.3620    -0.1660 ca         1 7HO       0.041600
     16 C5          -0.4340    -2.7510     0.5000 ca         1 7HO       0.132100
     17 C6          -0.3970    -3.9550     1.1940 ca         1 7HO      -0.249000
     18 C7          -1.5170    -4.7790     1.1790 ca         1 7HO      -0.130000
     19 O9          -4.5950    -3.7820    -1.4750 o          1 7HO      -0.823300
     20 O10         -4.3860    -1.6480    -0.8700 o          1 7HO      -0.823300
     21 O12          0.6030    -1.9000     0.3990 os         1 7HO      -0.295900
     22 C14          2.8130    -1.1500     0.7240 ca         1 7HO      -0.091300
     23 O22         -2.1170     0.1020     0.9860 o          1 7HO      -0.559100
     24 C25         -2.2490     3.3690    -2.8540 ca         1 7HO      -0.097000
     25 C26         -1.3820     3.4450    -1.7700 ca         1 7HO      -0.259000
     26 O28         -0.4700     2.3650     0.1900 os         1 7HO      -0.255900
     27 C29          0.3380     3.4940     0.4520 c3         1 7HO      -0.018600
     28 C30          1.0040     3.3860     1.8330 c          1 7HO       0.927600
     29 O31          1.9210     4.2140     2.0090 o          1 7HO      -0.820300
     30 O32          0.5700     2.5470     2.6350 o          1 7HO      -0.820300
     31 H39          1.6510    -2.2560     2.1460 h1         1 7HO       0.028700
     32 H38          2.1910    -3.1940     0.7500 h1         1 7HO       0.028700
     33 H42          5.9750    -0.8140    -0.4740 ha         1 7HO       0.155500
     34 H41          3.2290     2.2210     0.8050 ha         1 7HO       0.155500
     35 H40          1.5550     0.5010     1.3150 ha         1 7HO       0.160500
     36 H43          4.3020    -2.5390     0.0450 ha         1 7HO       0.160500
     37 H44         -3.4500     0.2510    -2.3820 ha         1 7HO       0.167000
     38 H45         -3.6790     2.1760    -3.9270 ha         1 7HO       0.110000
     39 H33         -3.5050    -5.0870     0.4550 ha         1 7HO       0.135000
     40 H34          0.4850    -4.2710     1.7350 ha         1 7HO       0.107000
     41 H35         -1.4850    -5.7180     1.7170 ha         1 7HO       0.094000
     42 H37         -1.4800    -1.1140    -1.8400 hn         1 7HO       0.311500
     43 H46         -2.3280     4.2180    -3.5210 ha         1 7HO       0.097000
     44 H47         -0.8010     4.3460    -1.6330 ha         1 7HO       0.127000
     45 H48          1.1010     3.6070    -0.3270 h1         1 7HO       0.013200
     46 H49         -0.2630     4.4130     0.4470 h1         1 7HO       0.013200
     47 C8          -4.0140    -2.8330    -0.9150 c          1 7HO       0.925200
     48 N11         -1.5900    -1.1200    -0.8390 ns         1 7HO      -0.470100
@<TRIPOS>BOND
     1     1    21 1   
     2     1    22 1   
     3     1    31 1   
     4     1    32 1   
     5     2     3 ar  
     6     2     6 ar  
     7     2    33 1   
     8     3     4 ar  
     9     3    12 1   
    10     4     5 ar  
    11     4    34 1   
    12     5    22 ar  
    13     5    35 1   
    14     6    22 ar  
    15     6    36 1   
    16     7     8 1   
    17     7    23 2   
    18     7    48 1   
    19     8     9 ar  
    20     8    11 ar  
    21     9    10 ar  
    22     9    37 1   
    23    10    24 ar  
    24    10    38 1   
    25    11    25 ar  
    26    11    26 1   
    27    13    14 ar  
    28    13    18 ar  
    29    13    39 1   
    30    14    15 ar  
    31    14    47 1   
    32    15    16 ar  
    33    15    48 1   
    34    16    17 ar  
    35    16    21 1   
    36    17    18 ar  
    37    17    40 1   
    38    18    41 1   
    39    19    47 1   
    40    20    47 1   
    41    24    25 ar  
    42    24    43 1   
    43    25    44 1   
    44    26    27 1   
    45    27    28 1   
    46    27    45 1   
    47    27    46 1   
    48    28    29 1   
    49    28    30 1   
    50    42    48 1   
@<TRIPOS>SUBSTRUCTURE
     1 7HO         1 TEMP              0 ****  ****    0 ROOT
