@<TRIPOS>MOLECULE
7HO
   48    50     1     0     0
SMALL
No Charge or Current Charge


@<TRIPOS>ATOM
      1 C13          1.7880    -2.3410     0.9910 c3         1 7HO       0.215900
      2 C18          4.8210    -0.4300    -0.3890 ca         1 7HO      -0.113500
      3 C17          4.5020     0.8910    -0.0340 ca         1 7HO       0.115000
      4 C16          3.3110     1.1670     0.6540 ca         1 7HO      -0.113500
      5 C15          2.4340     0.1210     0.9900 ca         1 7HO      -0.078000
      6 C19          3.9440    -1.4790    -0.0550 ca         1 7HO      -0.078000
      7 C20         -1.6080     0.0470    -0.1510 c          1 7HO       0.652700
      8 C21         -1.6820     1.2040    -1.1360 ca         1 7HO      -0.183600
      9 C23         -2.3630     1.0400    -2.3710 ca         1 7HO      -0.045000
     10 C24         -2.4380     2.0910    -3.2980 ca         1 7HO      -0.198000
     11 C27         -1.0780     2.4590    -0.8550 ca         1 7HO       0.202100
     12 Cl1          5.5970     2.2010    -0.4550 cl         1 7HO      -0.247000
     13 C2          -2.7900    -4.6290     0.5520 ca         1 7HO      -0.124000
     14 C3          -2.9240    -3.3600    -0.0540 ca         1 7HO      -0.098600
     15 C4          -1.8080    -2.4820    -0.0580 ca         1 7HO      -0.051000
     16 C5          -0.5770    -2.8950     0.5090 ca         1 7HO       0.132100
     17 C6          -0.4730    -4.1640     1.1170 ca         1 7HO      -0.231000
     18 C7          -1.5800    -5.0230     1.1400 ca         1 7HO      -0.112000
     19 O9          -4.8500    -3.8220    -1.3290 o          1 7HO      -0.718000
     20 O10         -4.7100    -1.8600    -0.4600 o          1 7HO      -0.718000
     21 O12          0.5130    -2.0530     0.3970 os         1 7HO      -0.319100
     22 C14          2.7450    -1.2090     0.6360 ca         1 7HO      -0.091300
     23 O22         -1.3600     0.1950     1.0410 o          1 7HO      -0.559100
     24 C25         -1.8380     3.3220    -3.0180 ca         1 7HO      -0.079000
     25 C26         -1.1630     3.5050    -1.8050 ca         1 7HO      -0.241000
     26 O28         -0.3930     2.6460     0.3350 os         1 7HO      -0.279100
     27 C29          0.2520     3.8970     0.6800 c3         1 7HO       0.004600
     28 C30          0.8990     3.8940     2.0980 c          1 7HO       0.717000
     29 O31          1.5090     4.8990     2.4400 o          1 7HO      -0.715000
     30 O32          0.7850     2.9100     2.8180 o          1 7HO      -0.715000
     31 H39          1.6970    -2.4140     2.0820 h1         1 7HO       0.028700
     32 H38          2.1830    -3.2920     0.6110 h1         1 7HO       0.028700
     33 H42          5.7440    -0.6410    -0.9220 ha         1 7HO       0.137500
     34 H41          3.0680     2.1900     0.9260 ha         1 7HO       0.137500
     35 H40          1.5090     0.3430     1.5200 ha         1 7HO       0.142500
     36 H43          4.1980    -2.4990    -0.3360 ha         1 7HO       0.142500
     37 H44         -2.8600     0.1060    -2.6270 ha         1 7HO       0.149000
     38 H45         -2.9670     1.9480    -4.2370 ha         1 7HO       0.092000
     39 H33         -3.6370    -5.3120     0.5720 ha         1 7HO       0.117000
     40 H34          0.4580    -4.5050     1.5610 ha         1 7HO       0.089000
     41 H35         -1.4970    -6.0030     1.6050 ha         1 7HO       0.076000
     42 H37         -2.1750    -1.2210    -1.6470 hn         1 7HO       0.145000
     43 H46         -1.8970     4.1340    -3.7400 ha         1 7HO       0.079000
     44 H47         -0.7050     4.4730    -1.6220 ha         1 7HO       0.109000
     45 H48          1.0410     4.1260    -0.0470 h1         1 7HO       0.013200
     46 H49         -0.4800     4.7150     0.6600 h1         1 7HO       0.013200
     47 C8          -4.2580    -2.9770    -0.6720 c          1 7HO       0.714600
     48 N11         -1.9030    -1.2060    -0.6740 ns         1 7HO      -0.144000
@<TRIPOS>BOND
     1     1    21 1   
     2     1    22 1   
     3     1    31 1   
     4     1    32 1   
     5     2     3 ar  
     6     2     6 ar  
     7     2    33 1   
     8     3     4 ar  
     9     3    12 1   
    10     4     5 ar  
    11     4    34 1   
    12     5    22 ar  
    13     5    35 1   
    14     6    22 ar  
    15     6    36 1   
    16     7     8 1   
    17     7    23 2   
    18     7    48 1   
    19     8     9 ar  
    20     8    11 ar  
    21     9    10 ar  
    22     9    37 1   
    23    10    24 ar  
    24    10    38 1   
    25    11    25 ar  
    26    11    26 1   
    27    13    14 ar  
    28    13    18 ar  
    29    13    39 1   
    30    14    15 ar  
    31    14    47 1   
    32    15    16 ar  
    33    15    48 1   
    34    16    17 ar  
    35    16    21 1   
    36    17    18 ar  
    37    17    40 1   
    38    18    41 1   
    39    19    47 1   
    40    20    47 1   
    41    24    25 ar  
    42    24    43 1   
    43    25    44 1   
    44    26    27 1   
    45    27    28 1   
    46    27    45 1   
    47    27    46 1   
    48    28    29 1   
    49    28    30 1   
    50    42    48 1   
@<TRIPOS>SUBSTRUCTURE
     1 7HO         1 TEMP              0 ****  ****    0 ROOT
