@<TRIPOS>MOLECULE
7HQ
   19    20     1     0     0
SMALL
No Charge or Current Charge


@<TRIPOS>ATOM
      1 CAI          2.2600     1.0060    -0.0210 ca         1 7HQ      -0.048000
      2 CAK          2.9850    -0.2040    -0.0750 ca         1 7HQ      -0.135000
      3 CAJ          2.3050    -1.4440    -0.0890 ca         1 7HQ      -0.095000
      4 CAF          0.8960    -1.4790    -0.0510 ca         1 7HQ      -0.118000
      5 CAD          0.2100    -0.2550     0.0010 ca         1 7HQ      -0.085200
      6 CAE          0.8580     0.9490     0.0170 ca         1 7HQ       0.072400
      7 NAC         -0.0300     2.0120     0.0780 nc         1 7HQ      -0.581100
      8 CAG         -1.2320     1.3910     0.0990 cd         1 7HQ       0.442700
      9 NAB         -1.1360    -0.0080     0.0430 na         1 7HQ      -0.197600
     10 CAH         -2.1930    -1.0210     0.1200 c3         1 7HQ       0.324600
     11 OAA         -3.3730    -0.4750    -0.4770 oh         1 7HQ      -0.663000
     12 H1           2.7750     1.9630    -0.0070 ha         1 7HQ       0.129000
     13 H2           4.0720    -0.1820    -0.1050 ha         1 7HQ       0.113000
     14 H3           2.8700    -2.3730    -0.1310 ha         1 7HQ       0.111000
     15 H4           0.3650    -2.4290    -0.0620 ha         1 7HQ       0.112000
     16 H5          -2.1950     1.8840     0.1590 h5         1 7HQ       0.073800
     17 H6          -1.8770    -1.9160    -0.4280 h2         1 7HQ       0.036700
     18 H7          -2.3790    -1.2630     1.1730 h2         1 7HQ       0.036700
     19 H8          -4.0560    -1.1810    -0.4290 ho         1 7HQ       0.471000
@<TRIPOS>BOND
     1     1     2 ar  
     2     1     6 ar  
     3     1    12 1   
     4     2     3 ar  
     5     2    13 1   
     6     3     4 ar  
     7     3    14 1   
     8     4     5 ar  
     9     4    15 1   
    10     5     6 ar  
    11     5     9 1   
    12     6     7 1   
    13     7     8 2   
    14     8     9 1   
    15     8    16 1   
    16     9    10 1   
    17    10    11 1   
    18    10    17 1   
    19    10    18 1   
    20    11    19 1   
@<TRIPOS>SUBSTRUCTURE
     1 7HQ         1 TEMP              0 ****  ****    0 ROOT
