@<TRIPOS>MOLECULE
7HQ
   19    20     1     0     0
SMALL
abcg2


@<TRIPOS>ATOM
      1 CAI          2.2430     1.0100    -0.0030 ca         1 7HQ      -0.048000
      2 CAK          2.9530    -0.1760    -0.0200 ca         1 7HQ      -0.135000
      3 CAJ          2.3030    -1.4190    -0.0340 ca         1 7HQ      -0.095000
      4 CAF          0.9220    -1.5140    -0.0310 ca         1 7HQ      -0.118000
      5 CAD          0.2150    -0.3160    -0.0160 ca         1 7HQ      -0.085200
      6 CAE          0.8500     0.9380     0.0010 ca         1 7HQ       0.072400
      7 NAC         -0.0920     1.9380     0.0180 nc         1 7HQ      -0.581100
      8 CAG         -1.2390     1.3190     0.0160 cd         1 7HQ       0.442700
      9 NAB         -1.1270    -0.0350    -0.0100 na         1 7HQ      -0.197600
     10 CAH         -2.1860    -1.0220     0.0070 c3         1 7HQ       0.324600
     11 OAA         -3.3730    -0.3630    -0.2860 oh         1 7HQ      -0.663000
     12 H1           2.7490     1.9670     0.0090 ha         1 7HQ       0.129000
     13 H2           4.0350    -0.1490    -0.0220 ha         1 7HQ       0.113000
     14 H3           2.8950    -2.3250    -0.0450 ha         1 7HQ       0.111000
     15 H4           0.4280    -2.4770    -0.0370 ha         1 7HQ       0.112000
     16 H5          -2.1990     1.8110     0.0300 h5         1 7HQ       0.073800
     17 H6          -1.9380    -1.7860    -0.7390 h2         1 7HQ       0.036700
     18 H7          -2.2070    -1.5020     0.9910 h2         1 7HQ       0.036700
     19 H8          -4.1070    -0.9230    -0.0140 ho         1 7HQ       0.471000
@<TRIPOS>BOND
     1     1     2 ar  
     2     1     6 ar  
     3     1    12 1   
     4     2     3 ar  
     5     2    13 1   
     6     3     4 ar  
     7     3    14 1   
     8     4     5 ar  
     9     4    15 1   
    10     5     6 ar  
    11     5     9 1   
    12     6     7 1   
    13     7     8 2   
    14     8     9 1   
    15     8    16 1   
    16     9    10 1   
    17    10    11 1   
    18    10    17 1   
    19    10    18 1   
    20    11    19 1   
@<TRIPOS>SUBSTRUCTURE
     1 7HQ         1 TEMP              0 ****  ****    0 ROOT
