@<TRIPOS>MOLECULE
7HR
   77    81     1     0     0
SMALL
No Charge or Current Charge


@<TRIPOS>ATOM
      1 N12         -3.0060     2.0200    -0.5070 nh         1 7HR      -0.639100
      2 C13         -3.7120     2.5470    -1.6970 c3         1 7HR       0.233100
      3 C17         -4.1670    -0.8510     1.6680 cc         1 7HR      -0.283000
      4 C20         -6.6250    -1.6580    -1.1230 ca         1 7HR      -0.061000
      5 C21         -7.6410    -2.5620    -1.4770 ca         1 7HR      -0.159000
      6 C22         -7.9970    -3.5940    -0.5990 ca         1 7HR       0.178000
      7 C24         -7.3430    -3.7270     0.6330 ca         1 7HR      -0.159000
      8 C26          1.5850    -0.8900    -0.4190 c6         1 7HR      -0.004400
      9 C28          3.2330    -2.2770    -1.8250 c6         1 7HR       0.207300
     10 C39          9.2500     2.4980     0.1340 c3         1 7HR       0.149100
     11 N38          8.9330     1.0960     0.4880 n3         1 7HR      -0.713600
     12 C40          9.3360     0.7760     1.8790 c3         1 7HR       0.149100
     13 C37          7.5230     0.7490     0.1740 c3         1 7HR       0.173800
     14 C36          7.1820    -0.7550     0.2780 c3         1 7HR      -0.046400
     15 C35          5.7470    -1.0730    -0.2120 c3         1 7HR      -0.341400
     16 O33          6.1220    -3.5900    -1.0770 o          1 7HR      -0.530000
     17 O34          5.3920    -3.2050     1.3130 o          1 7HR      -0.530000
     18 N29          3.6810    -2.9730    -0.5890 n3         1 7HR      -0.759500
     19 C30          2.6290    -3.0350     0.4590 c6         1 7HR       0.207300
     20 C31          2.1270    -1.6230     0.8370 c6         1 7HR      -0.100400
     21 C27          2.6540    -0.8610    -1.5460 c6         1 7HR      -0.100400
     22 C08          1.0920     0.5070    -0.0810 cc         1 7HR      -0.113300
     23 C09         -0.2470     0.8320    -0.2960 cd         1 7HR      -0.098000
     24 N10         -0.6100     2.1200     0.1100 na         1 7HR       0.132100
     25 C07          2.0420     1.4720     0.4460 cc         1 7HR      -0.096000
     26 C06          1.6630     2.7670     0.7320 cd         1 7HR      -0.077000
     27 C05          0.2890     3.0680     0.5160 cd         1 7HR      -0.060000
     28 N04         -0.3210     4.2340     0.6590 nc         1 7HR      -0.291600
     29 C03         -1.6360     4.0150     0.2870 cc         1 7HR       0.121400
     30 C02         -2.6400     5.1380     0.3380 c3         1 7HR      -0.008200
     31 C01         -2.4630     6.1650    -0.7980 c3         1 7HR      -0.084100
     32 C11         -1.8470     2.6960    -0.0710 cd         1 7HR      -0.021100
     33 C14         -3.5460     0.9240     0.1480 cc         1 7HR       0.707300
     34 N15         -4.5210     0.2040    -0.3760 nd         1 7HR      -0.726000
     35 S18         -3.0020     0.4370     1.7370 ss         1 7HR      -0.061400
     36 C16         -4.8790    -0.8200     0.4890 cd         1 7HR       0.386500
     37 C19         -5.9510    -1.7750     0.1170 ca         1 7HR      -0.138500
     38 C25         -6.3250    -2.8240     0.9910 ca         1 7HR      -0.061000
     39 H1          -3.8130     1.7680    -2.4640 h1         1 7HR       0.048367
     40 H2          -4.7140     2.9020    -1.4230 h1         1 7HR       0.048367
     41 H3          -3.1590     3.3840    -2.1410 h1         1 7HR       0.048367
     42 H4          -4.2470    -1.5360     2.5000 h4         1 7HR       0.161000
     43 H6          -6.3660    -0.8650    -1.8220 ha         1 7HR       0.126000
     44 H7          -8.1530    -2.4640    -2.4310 ha         1 7HR       0.132000
     45 H8          -7.6240    -4.5300     1.3100 ha         1 7HR       0.132000
     46 H9           0.7390    -1.4830    -0.7960 hc         1 7HR       0.057700
     47 H10          4.0460    -2.2090    -2.5630 h1         1 7HR       0.072700
     48 H11          2.4390    -2.8730    -2.3000 h1         1 7HR       0.072700
     49 H12         10.3160     2.7090     0.2960 h1         1 7HR       0.031533
     50 H13          9.0260     2.6920    -0.9240 h1         1 7HR       0.031533
     51 H14          8.6640     3.1990     0.7440 h1         1 7HR       0.031533
     52 H16          8.7080     1.3140     2.6020 h1         1 7HR       0.031533
     53 H17          9.2530    -0.3000     2.0810 h1         1 7HR       0.031533
     54 H18         10.3810     1.0620     2.0540 h1         1 7HR       0.031533
     55 H19          6.8450     1.3090     0.8320 h1         1 7HR       0.028200
     56 H20          7.3000     1.0630    -0.8550 h1         1 7HR       0.028200
     57 H21          7.9080    -1.3250    -0.3160 hc         1 7HR       0.067700
     58 H22          7.2860    -1.0830     1.3200 hc         1 7HR       0.067700
     59 H23          5.0110    -0.5420     0.3990 h1         1 7HR       0.085700
     60 H24          5.6370    -0.7920    -1.2640 h1         1 7HR       0.085700
     61 H25          1.7710    -3.6100     0.0790 h1         1 7HR       0.072700
     62 H26          2.9690    -3.5670     1.3590 h1         1 7HR       0.072700
     63 H27          2.9400    -1.0570     1.3080 hc         1 7HR       0.053450
     64 H28          1.3310    -1.7070     1.5890 hc         1 7HR       0.053450
     65 H29          2.2030    -0.4700    -2.4670 hc         1 7HR       0.053450
     66 H30          3.4590    -0.1640    -1.2940 hc         1 7HR       0.053450
     67 H31         -1.0040     0.1790    -0.7110 h4         1 7HR       0.153000
     68 H32          3.0760     1.1780     0.5920 ha         1 7HR       0.122000
     69 H33          2.3710     3.5100     1.0840 ha         1 7HR       0.147000
     70 H34         -3.6570     4.7310     0.2970 hc         1 7HR       0.058200
     71 H35         -2.5590     5.6570     1.3010 hc         1 7HR       0.058200
     72 H36         -1.4740     6.6360    -0.7440 hc         1 7HR       0.038367
     73 H37         -2.5620     5.6820    -1.7780 hc         1 7HR       0.038367
     74 H38         -3.2230     6.9520    -0.7250 hc         1 7HR       0.038367
     75 H40         -5.8360    -2.9530     1.9520 ha         1 7HR       0.126000
     76 F23         -8.9740    -4.4620    -0.9400 f          1 7HR      -0.178000
     77 S32          5.3360    -2.8260    -0.1030 s6         1 7HR       1.207100
@<TRIPOS>BOND
     1     1     2 1   
     2     1    32 1   
     3     1    33 1   
     4     2    39 1   
     5     2    40 1   
     6     2    41 1   
     7     3    35 1   
     8     3    36 2   
     9     3    42 1   
    10     4     5 ar  
    11     4    37 ar  
    12     4    43 1   
    13     5     6 ar  
    14     5    44 1   
    15     6     7 ar  
    16     6    76 1   
    17     7    38 ar  
    18     7    45 1   
    19     8    20 1   
    20     8    21 1   
    21     8    22 1   
    22     8    46 1   
    23     9    18 1   
    24     9    21 1   
    25     9    47 1   
    26     9    48 1   
    27    10    11 1   
    28    10    49 1   
    29    10    50 1   
    30    10    51 1   
    31    11    12 1   
    32    11    13 1   
    33    12    52 1   
    34    12    53 1   
    35    12    54 1   
    36    13    14 1   
    37    13    55 1   
    38    13    56 1   
    39    14    15 1   
    40    14    57 1   
    41    14    58 1   
    42    15    59 1   
    43    15    60 1   
    44    15    77 1   
    45    16    77 2   
    46    17    77 2   
    47    18    19 1   
    48    18    77 1   
    49    19    20 1   
    50    19    61 1   
    51    19    62 1   
    52    20    63 1   
    53    20    64 1   
    54    21    65 1   
    55    21    66 1   
    56    22    23 2   
    57    22    25 1   
    58    23    24 1   
    59    23    67 1   
    60    24    27 1   
    61    24    32 1   
    62    25    26 2   
    63    25    68 1   
    64    26    27 1   
    65    26    69 1   
    66    27    28 2   
    67    28    29 1   
    68    29    30 1   
    69    29    32 2   
    70    30    31 1   
    71    30    70 1   
    72    30    71 1   
    73    31    72 1   
    74    31    73 1   
    75    31    74 1   
    76    33    34 2   
    77    33    35 1   
    78    34    36 1   
    79    36    37 1   
    80    37    38 ar  
    81    38    75 1   
@<TRIPOS>SUBSTRUCTURE
     1 7HR         1 TEMP              0 ****  ****    0 ROOT
