@<TRIPOS>MOLECULE
7HR
   77    81     1     0     0
SMALL
bcc


@<TRIPOS>ATOM
      1 N12         -3.1530     1.8750    -0.8820 nh         1 7HR      -0.639100
      2 C13         -3.5880     1.8450    -2.2710 c3         1 7HR       0.233100
      3 C17         -4.3430    -0.2840     1.9450 cc         1 7HR      -0.221400
      4 C20         -6.6320    -1.8320    -0.6020 ca         1 7HR      -0.079000
      5 C21         -7.5890    -2.8200    -0.7820 ca         1 7HR      -0.177000
      6 C22         -7.8860    -3.6550     0.2750 ca         1 7HR       0.142900
      7 C24         -7.2560    -3.5350     1.5000 ca         1 7HR      -0.177000
      8 C26          1.7000    -0.4170    -0.9410 c6         1 7HR      -0.004400
      9 C28          3.3590    -1.7390    -2.2900 c6         1 7HR       0.207300
     10 C39          9.7450     1.7790     1.3090 c3         1 7HR       0.149100
     11 N38          9.2780     0.4150     1.1760 n3         1 7HR      -0.713600
     12 C40          9.5590    -0.3380     2.3810 c3         1 7HR       0.149100
     13 C37          7.8760     0.3820     0.8100 c3         1 7HR       0.173800
     14 C36          7.4210    -0.9920     0.3310 c3         1 7HR      -0.046400
     15 C35          5.9600    -0.9460    -0.0920 c3         1 7HR      -0.230600
     16 O33          6.1130    -2.7680    -1.9800 o          1 7HR      -0.600800
     17 O34          5.5460    -3.5060     0.3460 o          1 7HR      -0.600800
     18 N29          3.8110    -2.4100    -1.0740 n3         1 7HR      -0.759500
     19 C30          2.8170    -2.4590    -0.0040 c6         1 7HR       0.207300
     20 C31          2.2500    -1.0860     0.3220 c6         1 7HR      -0.100400
     21 C27          2.7890    -0.3530    -2.0130 c6         1 7HR      -0.100400
     22 C08          1.0930     0.9230    -0.6310 cc         1 7HR      -0.113300
     23 C09         -0.2480     1.1030    -0.7630 cd         1 7HR      -0.065300
     24 N10         -0.8070     2.3000    -0.4390 na         1 7HR       0.030700
     25 C07          1.8800     2.0100    -0.1550 cc         1 7HR      -0.114000
     26 C06          1.3130     3.2070     0.1680 cd         1 7HR      -0.095000
     27 C05         -0.0800     3.3680     0.0310 cd         1 7HR      -0.009300
     28 N04         -0.8650     4.4030     0.2950 nc         1 7HR      -0.291600
     29 C03         -2.1230     4.0030     0.0020 cc         1 7HR       0.121400
     30 C02         -3.3040     4.8980     0.1480 c3         1 7HR      -0.008200
     31 C01         -3.3250     6.0020    -0.9060 c3         1 7HR      -0.084100
     32 C11         -2.1280     2.7060    -0.4580 cd         1 7HR      -0.021100
     33 C14         -3.7110     1.0020    -0.0010 cc         1 7HR       0.707300
     34 N15         -4.6000     0.1190    -0.3120 nd         1 7HR      -0.726000
     35 S18         -3.2390     1.0160     1.6760 ss         1 7HR      -0.206300
     36 C16         -4.9690    -0.6200     0.7860 cd         1 7HR       0.451800
     37 C19         -5.9760    -1.6760     0.6200 ca         1 7HR      -0.138500
     38 C25         -6.3030    -2.5450     1.6630 ca         1 7HR      -0.079000
     39 H1          -3.3610     0.8860    -2.7400 h1         1 7HR       0.048367
     40 H2          -4.6610     2.0210    -2.3450 h1         1 7HR       0.048367
     41 H3          -3.0660     2.6310    -2.8090 h1         1 7HR       0.048367
     42 H4          -4.4610    -0.7040     2.9300 h4         1 7HR       0.179000
     43 H6          -6.3920    -1.1720    -1.4240 ha         1 7HR       0.144000
     44 H7          -8.0950    -2.9330    -1.7320 ha         1 7HR       0.150000
     45 H8          -7.5020    -4.2050     2.3140 ha         1 7HR       0.150000
     46 H9           0.8980    -1.0580    -1.3260 hc         1 7HR       0.057700
     47 H10          4.1720    -1.6880    -3.0110 h1         1 7HR       0.072700
     48 H11          2.5860    -2.3720    -2.7360 h1         1 7HR       0.072700
     49 H12         10.8130     1.7860     1.5300 h1         1 7HR       0.031533
     50 H13          9.5930     2.3220     0.3760 h1         1 7HR       0.031533
     51 H14          9.2360     2.3380     2.1110 h1         1 7HR       0.031533
     52 H16          9.0180     0.0420     3.2620 h1         1 7HR       0.031533
     53 H17          9.3010    -1.3890     2.2590 h1         1 7HR       0.031533
     54 H18         10.6260    -0.2910     2.6030 h1         1 7HR       0.031533
     55 H19          7.2280     0.7140     1.6420 h1         1 7HR       0.028200
     56 H20          7.7250     1.0980    -0.0020 h1         1 7HR       0.028200
     57 H21          8.0470    -1.3010    -0.5090 hc         1 7HR       0.067700
     58 H22          7.5380    -1.7360     1.1200 hc         1 7HR       0.067700
     59 H23          5.3100    -0.6930     0.7490 h1         1 7HR       0.085700
     60 H24          5.7940    -0.2130    -0.8850 h1         1 7HR       0.085700
     61 H25          2.0100    -3.1130    -0.3470 h1         1 7HR       0.072700
     62 H26          3.2440    -2.9270     0.8800 h1         1 7HR       0.072700
     63 H27          3.0190    -0.4560     0.7800 hc         1 7HR       0.053450
     64 H28          1.4560    -1.2000     1.0630 hc         1 7HR       0.053450
     65 H29          2.3800     0.0470    -2.9430 hc         1 7HR       0.053450
     66 H30          3.5940     0.3220    -1.7070 hc         1 7HR       0.053450
     67 H31         -0.9190     0.3310    -1.1160 h4         1 7HR       0.171000
     68 H32          2.9490     1.8860    -0.0380 ha         1 7HR       0.140000
     69 H33          1.9010     4.0370     0.5340 ha         1 7HR       0.165000
     70 H34         -4.2180     4.3040     0.0830 hc         1 7HR       0.058200
     71 H35         -3.2920     5.3440     1.1460 hc         1 7HR       0.058200
     72 H36         -2.4350     6.6270    -0.8380 hc         1 7HR       0.038367
     73 H37         -3.3630     5.5830    -1.9130 hc         1 7HR       0.038367
     74 H38         -4.1970     6.6430    -0.7780 hc         1 7HR       0.038367
     75 H40         -5.8080    -2.4620     2.6220 ha         1 7HR       0.144000
     76 F23         -8.8100    -4.6150     0.1120 f          1 7HR      -0.142900
     77 S32          5.4090    -2.5290    -0.7270 s6         1 7HR       1.237900
@<TRIPOS>BOND
     1     1     2 1   
     2     1    32 1   
     3     1    33 1   
     4     2    39 1   
     5     2    40 1   
     6     2    41 1   
     7     3    35 1   
     8     3    36 2   
     9     3    42 1   
    10     4     5 ar  
    11     4    37 ar  
    12     4    43 1   
    13     5     6 ar  
    14     5    44 1   
    15     6     7 ar  
    16     6    76 1   
    17     7    38 ar  
    18     7    45 1   
    19     8    20 1   
    20     8    21 1   
    21     8    22 1   
    22     8    46 1   
    23     9    18 1   
    24     9    21 1   
    25     9    47 1   
    26     9    48 1   
    27    10    11 1   
    28    10    49 1   
    29    10    50 1   
    30    10    51 1   
    31    11    12 1   
    32    11    13 1   
    33    12    52 1   
    34    12    53 1   
    35    12    54 1   
    36    13    14 1   
    37    13    55 1   
    38    13    56 1   
    39    14    15 1   
    40    14    57 1   
    41    14    58 1   
    42    15    59 1   
    43    15    60 1   
    44    15    77 1   
    45    16    77 2   
    46    17    77 2   
    47    18    19 1   
    48    18    77 1   
    49    19    20 1   
    50    19    61 1   
    51    19    62 1   
    52    20    63 1   
    53    20    64 1   
    54    21    65 1   
    55    21    66 1   
    56    22    23 2   
    57    22    25 1   
    58    23    24 1   
    59    23    67 1   
    60    24    27 1   
    61    24    32 1   
    62    25    26 2   
    63    25    68 1   
    64    26    27 1   
    65    26    69 1   
    66    27    28 2   
    67    28    29 1   
    68    29    30 1   
    69    29    32 2   
    70    30    31 1   
    71    30    70 1   
    72    30    71 1   
    73    31    72 1   
    74    31    73 1   
    75    31    74 1   
    76    33    34 2   
    77    33    35 1   
    78    34    36 1   
    79    36    37 1   
    80    37    38 ar  
    81    38    75 1   
@<TRIPOS>SUBSTRUCTURE
     1 7HR         1 TEMP              0 ****  ****    0 ROOT
