@<TRIPOS>MOLECULE
7HT
   72    76     1     0     0
SMALL
No Charge or Current Charge


@<TRIPOS>ATOM
      1 C1          -6.2750     1.6620    -2.0910 c3         1 7HT      -0.132100
      2 C2          -4.9350     2.0620    -1.4340 c6         1 7HT       0.112300
      3 C3          -3.8510     0.9520    -1.5050 c6         1 7HT       0.156800
      4 N4          -2.6140     1.2820    -0.7110 n3         1 7HT      -0.760600
      5 C5          -1.5090     0.2800    -0.9690 c3         1 7HT       0.114800
      6 C6          -1.6490    -1.1960    -0.4680 c          1 7HT       0.583100
      7 C10          0.7870    -4.0340     0.1410 c5         1 7HT      -0.002700
      8 C11          1.3270    -4.3430     1.5590 c3         1 7HT      -0.082600
      9 C12          0.8320    -5.3340    -0.7000 c3         1 7HT      -0.082600
     10 C13          1.5850    -2.9230    -0.5240 ca         1 7HT      -0.175300
     11 C14          2.9600    -2.9350    -0.8170 ca         1 7HT       0.385900
     12 C16          2.8320    -0.8050    -1.7280 ca         1 7HT       0.381300
     13 C19          2.5240     2.6530    -1.7700 ca         1 7HT      -0.109000
     14 C21          3.0880     3.8390     0.2810 ca         1 7HT      -0.109000
     15 C22          3.9740     2.8070     0.6330 ca         1 7HT      -0.115500
     16 C23          4.1350     1.6990    -0.2170 ca         1 7HT      -0.109000
     17 C24          1.4450    -0.7370    -1.4980 ca         1 7HT      -0.209000
     18 C25          0.8250    -1.8230    -0.8560 ca         1 7HT       0.011000
     19 C26         -2.9010     1.5480     0.7610 c6         1 7HT       0.169500
     20 C27         -1.6610     2.0110     1.6000 c3         1 7HT       0.097600
     21 C31          2.6070    -0.5860     2.3150 c3         1 7HT      -0.017800
     22 O7          -2.7400    -1.6350    -0.1070 o          1 7HT      -0.595100
     23 N8          -0.5080    -2.0460    -0.4160 n          1 7HT      -0.203400
     24 C9          -0.6730    -3.4010     0.1810 c5         1 7HT       0.096000
     25 N15          3.5830    -1.8850    -1.4020 nb         1 7HT      -0.673000
     26 C18          3.4130     1.6160    -1.4230 ca         1 7HT      -0.081300
     27 C20          2.3630     3.7610    -0.9200 ca         1 7HT      -0.115500
     28 N28         -0.6740     0.9840     1.9900 na         1 7HT       0.096800
     29 C29          0.6910     1.0170     1.7190 cc         1 7HT      -0.175000
     30 C30          1.1760    -0.1190     2.2970 cd         1 7HT      -0.166300
     31 C32          0.0710    -0.7700     2.8910 cd         1 7HT       0.256900
     32 N33         -1.0630    -0.1160     2.7250 nc         1 7HT      -0.537800
     33 C34         -3.9930     2.6520     0.9410 c6         1 7HT       0.090600
     34 N35         -5.2320     2.3440     0.0520 ny         1 7HT      -0.817000
     35 H37         -7.0180     2.4630    -1.9980 hc         1 7HT       0.078700
     36 H38         -6.1400     1.4640    -3.1610 hc         1 7HT       0.078700
     37 H36         -6.6960     0.7560    -1.6370 hc         1 7HT       0.078700
     38 H39         -4.5660     2.9950    -1.8770 hx         1 7HT       0.109700
     39 H41         -4.3020     0.0150    -1.1500 h1         1 7HT       0.087200
     40 H40         -3.5970     0.7950    -2.5640 h1         1 7HT       0.087200
     41 H43         -1.3230     0.2080    -2.0480 h1         1 7HT       0.091700
     42 H42         -0.5880     0.6670    -0.5310 h1         1 7HT       0.091700
     43 H46          0.7090    -5.0950     2.0650 hc         1 7HT       0.045200
     44 H47          2.3550    -4.7260     1.5240 hc         1 7HT       0.045200
     45 H48          1.3310    -3.4440     2.1840 hc         1 7HT       0.045200
     46 H51          0.4800    -5.1530    -1.7240 hc         1 7HT       0.045200
     47 H49          1.8500    -5.7360    -0.7670 hc         1 7HT       0.045200
     48 H50          0.1940    -6.1120    -0.2640 hc         1 7HT       0.045200
     49 H52          3.5810    -3.7940    -0.5660 h4         1 7HT       0.032100
     50 H57          2.9620     4.6970     0.9380 ha         1 7HT       0.119000
     51 H58          4.5330     2.8640     1.5640 ha         1 7HT       0.115500
     52 H59          4.8160     0.8990     0.0670 ha         1 7HT       0.117500
     53 H60          0.9210     0.1520    -1.8170 ha         1 7HT       0.117000
     54 H61         -3.2920     0.6340     1.2350 h1         1 7HT       0.097700
     55 H63         -1.1440     2.8020     1.0440 h1         1 7HT       0.071700
     56 H62         -2.0240     2.4580     2.5340 h1         1 7HT       0.071700
     57 H65          3.2680     0.1930     2.7150 hc         1 7HT       0.048700
     58 H66          2.7300    -1.4800     2.9360 hc         1 7HT       0.048700
     59 H67          2.9520    -0.8280     1.3040 hc         1 7HT       0.048700
     60 H45         -1.3880    -3.9960    -0.4010 h1         1 7HT       0.070200
     61 H44         -1.0550    -3.3300     1.2080 h1         1 7HT       0.070200
     62 H56          1.6750     4.5590    -1.1930 ha         1 7HT       0.115500
     63 H64          1.1740     1.8110     1.1620 h4         1 7HT       0.168000
     64 H68          0.0680    -1.6990     3.4470 h4         1 7HT       0.047100
     65 H69         -4.3300     2.7340     1.9810 hx         1 7HT       0.102700
     66 H70         -3.6100     3.6260     0.6160 hx         1 7HT       0.102700
     67 H72         -5.9160     3.1270     0.1280 hn         1 7HT       0.501500
     68 H71         -5.7350     1.5260     0.4550 hn         1 7HT       0.501500
     69 C17          3.5640     0.3900    -2.3170 c3         1 7HT      -0.089400
     70 H55          1.9530     2.5990    -2.6940 ha         1 7HT       0.117500
     71 H54          4.6280     0.1610    -2.4550 hc         1 7HT       0.074200
     72 H53          3.1720     0.5930    -3.3210 hc         1 7HT       0.074200
@<TRIPOS>BOND
     1     1     2 1   
     2     1    35 1   
     3     1    36 1   
     4     1    37 1   
     5     2     3 1   
     6     2    34 1   
     7     2    38 1   
     8     3     4 1   
     9     3    39 1   
    10     3    40 1   
    11     4     5 1   
    12     4    19 1   
    13     5     6 1   
    14     5    41 1   
    15     5    42 1   
    16     6    22 2   
    17     6    23 1   
    18     7     8 1   
    19     7     9 1   
    20     7    10 1   
    21     7    24 1   
    22     8    43 1   
    23     8    44 1   
    24     8    45 1   
    25     9    46 1   
    26     9    47 1   
    27     9    48 1   
    28    10    11 ar  
    29    10    18 ar  
    30    11    25 ar  
    31    11    49 1   
    32    12    17 ar  
    33    12    25 ar  
    34    12    69 1   
    35    13    26 ar  
    36    13    27 ar  
    37    13    70 1   
    38    14    15 ar  
    39    14    27 ar  
    40    14    50 1   
    41    15    16 ar  
    42    15    51 1   
    43    16    26 ar  
    44    16    52 1   
    45    17    18 ar  
    46    17    53 1   
    47    18    23 1   
    48    19    20 1   
    49    19    33 1   
    50    19    54 1   
    51    20    28 1   
    52    20    55 1   
    53    20    56 1   
    54    21    30 1   
    55    21    57 1   
    56    21    58 1   
    57    21    59 1   
    58    23    24 1   
    59    24    60 1   
    60    24    61 1   
    61    26    69 1   
    62    27    62 1   
    63    28    29 1   
    64    28    32 1   
    65    29    30 2   
    66    29    63 1   
    67    30    31 1   
    68    31    32 2   
    69    31    64 1   
    70    33    34 1   
    71    33    65 1   
    72    33    66 1   
    73    34    67 1   
    74    34    68 1   
    75    69    71 1   
    76    69    72 1   
@<TRIPOS>SUBSTRUCTURE
     1 7HT         1 TEMP              0 ****  ****    0 ROOT
