@<TRIPOS>MOLECULE
7HT
   72    76     1     0     0
SMALL
abcg2


@<TRIPOS>ATOM
      1 C1          -6.2170     1.4480    -2.0330 c3         1 7HT      -0.132100
      2 C2          -4.8780     1.8240    -1.4360 c6         1 7HT       0.112300
      3 C3          -3.9280     0.6480    -1.3250 c6         1 7HT       0.156800
      4 N4          -2.6770     1.0480    -0.7130 n3         1 7HT      -0.760600
      5 C5          -1.5650     0.1800    -0.9860 c3         1 7HT       0.114800
      6 C6          -1.6170    -1.1910    -0.3230 c          1 7HT       0.583100
      7 C10          0.8110    -3.9390     0.1480 c5         1 7HT      -0.002700
      8 C11          1.3980    -4.4810     1.4480 c3         1 7HT      -0.082600
      9 C12          0.6860    -5.0680    -0.8810 c3         1 7HT      -0.082600
     10 C13          1.6100    -2.8120    -0.4500 ca         1 7HT      -0.175300
     11 C14          2.9490    -2.7430    -0.7440 ca         1 7HT       0.385900
     12 C16          2.7140    -0.6960    -1.7170 ca         1 7HT       0.381300
     13 C19          2.4110     2.7090    -1.4840 ca         1 7HT      -0.109000
     14 C21          3.2030     3.7030     0.5620 ca         1 7HT      -0.109000
     15 C22          4.1200     2.6680     0.6980 ca         1 7HT      -0.115500
     16 C23          4.1790     1.6590    -0.2530 ca         1 7HT      -0.109000
     17 C24          1.3360    -0.6850    -1.5000 ca         1 7HT      -0.209000
     18 C25          0.7840    -1.7430    -0.8000 ca         1 7HT       0.011000
     19 C26         -2.8500     1.5340     0.6480 c6         1 7HT       0.169500
     20 C27         -1.5650     2.0600     1.2900 c3         1 7HT       0.097600
     21 C31          2.5090    -0.6590     2.3660 c3         1 7HT      -0.017800
     22 O7          -2.6310    -1.5940     0.2140 o          1 7HT      -0.595100
     23 N8          -0.5090    -1.9900    -0.3530 n          1 7HT      -0.203400
     24 C9          -0.5550    -3.2640     0.3840 c5         1 7HT       0.096000
     25 N15          3.5090    -1.6890    -1.3460 nb         1 7HT      -0.673000
     26 C18          3.3250     1.6670    -1.3540 ca         1 7HT      -0.081300
     27 C20          2.3490     3.7220    -0.5330 ca         1 7HT      -0.115500
     28 N28         -0.6700     1.0380     1.7830 na         1 7HT       0.096800
     29 C29          0.6540     0.9230     1.5380 cc         1 7HT      -0.175000
     30 C30          1.1170    -0.1350     2.2850 cd         1 7HT      -0.166300
     31 C32         -0.0340    -0.5880     2.9590 cd         1 7HT       0.256900
     32 N33         -1.0990     0.1310     2.6530 nc         1 7HT      -0.537800
     33 C34         -3.8030     2.7230     0.6130 c6         1 7HT       0.090600
     34 N35         -5.0780     2.3640    -0.0560 ny         1 7HT      -0.817000
     35 H37         -6.8910     2.3030    -2.0640 hc         1 7HT       0.078700
     36 H38         -6.0740     1.1000    -3.0550 hc         1 7HT       0.078700
     37 H36         -6.6950     0.6480    -1.4660 hc         1 7HT       0.078700
     38 H39         -4.4120     2.6310    -2.0030 hx         1 7HT       0.109700
     39 H41         -4.4340    -0.1660    -0.7880 h1         1 7HT       0.087200
     40 H40         -3.7270     0.2890    -2.3360 h1         1 7HT       0.087200
     41 H43         -1.5000     0.0350    -2.0690 h1         1 7HT       0.091700
     42 H42         -0.6460     0.6900    -0.7110 h1         1 7HT       0.091700
     43 H46          0.7640    -5.2730     1.8510 hc         1 7HT       0.045200
     44 H47          2.3910    -4.9040     1.2860 hc         1 7HT       0.045200
     45 H48          1.4840    -3.7030     2.2060 hc         1 7HT       0.045200
     46 H51          0.2260    -4.7150    -1.8050 hc         1 7HT       0.045200
     47 H49          1.6660    -5.4770    -1.1290 hc         1 7HT       0.045200
     48 H50          0.0710    -5.8800    -0.4880 hc         1 7HT       0.045200
     49 H52          3.6160    -3.5580    -0.4820 h4         1 7HT       0.032100
     50 H57          3.1540     4.4890     1.3040 ha         1 7HT       0.119000
     51 H58          4.7900     2.6460     1.5470 ha         1 7HT       0.115500
     52 H59          4.8940     0.8530    -0.1360 ha         1 7HT       0.117500
     53 H60          0.7710     0.1520    -1.8770 ha         1 7HT       0.117000
     54 H61         -3.2790     0.7680     1.3100 h1         1 7HT       0.097700
     55 H63         -1.0120     2.6780     0.5800 h1         1 7HT       0.071700
     56 H62         -1.8390     2.7070     2.1270 h1         1 7HT       0.071700
     57 H65          2.9680    -0.4360     3.3310 hc         1 7HT       0.048700
     58 H66          2.5390    -1.7400     2.2330 hc         1 7HT       0.048700
     59 H67          3.1380    -0.2180     1.5930 hc         1 7HT       0.048700
     60 H45         -1.3810    -3.8780     0.0270 h1         1 7HT       0.070200
     61 H44         -0.7260    -3.0560     1.4430 h1         1 7HT       0.070200
     62 H56          1.6320     4.5240    -0.6490 ha         1 7HT       0.115500
     63 H64          1.1760     1.5860     0.8630 h4         1 7HT       0.168000
     64 H68         -0.1130    -1.4110     3.6540 h4         1 7HT       0.047100
     65 H69         -4.0490     3.0570     1.6170 hx         1 7HT       0.102700
     66 H70         -3.3760     3.5540     0.0510 hx         1 7HT       0.102700
     67 H72         -5.6810     3.1880    -0.0860 hn         1 7HT       0.501500
     68 H71         -5.5830     1.6800     0.5130 hn         1 7HT       0.501500
     69 C17          3.3500     0.5230    -2.3380 c3         1 7HT      -0.089400
     70 H55          1.7410     2.7300    -2.3360 ha         1 7HT       0.117500
     71 H54          4.3750     0.2820    -2.6220 hc         1 7HT       0.074200
     72 H53          2.8140     0.8040    -3.2470 hc         1 7HT       0.074200
@<TRIPOS>BOND
     1     1     2 1   
     2     1    35 1   
     3     1    36 1   
     4     1    37 1   
     5     2     3 1   
     6     2    34 1   
     7     2    38 1   
     8     3     4 1   
     9     3    39 1   
    10     3    40 1   
    11     4     5 1   
    12     4    19 1   
    13     5     6 1   
    14     5    41 1   
    15     5    42 1   
    16     6    22 2   
    17     6    23 1   
    18     7     8 1   
    19     7     9 1   
    20     7    10 1   
    21     7    24 1   
    22     8    43 1   
    23     8    44 1   
    24     8    45 1   
    25     9    46 1   
    26     9    47 1   
    27     9    48 1   
    28    10    11 ar  
    29    10    18 ar  
    30    11    25 ar  
    31    11    49 1   
    32    12    17 ar  
    33    12    25 ar  
    34    12    69 1   
    35    13    26 ar  
    36    13    27 ar  
    37    13    70 1   
    38    14    15 ar  
    39    14    27 ar  
    40    14    50 1   
    41    15    16 ar  
    42    15    51 1   
    43    16    26 ar  
    44    16    52 1   
    45    17    18 ar  
    46    17    53 1   
    47    18    23 1   
    48    19    20 1   
    49    19    33 1   
    50    19    54 1   
    51    20    28 1   
    52    20    55 1   
    53    20    56 1   
    54    21    30 1   
    55    21    57 1   
    56    21    58 1   
    57    21    59 1   
    58    23    24 1   
    59    24    60 1   
    60    24    61 1   
    61    26    69 1   
    62    27    62 1   
    63    28    29 1   
    64    28    32 1   
    65    29    30 2   
    66    29    63 1   
    67    30    31 1   
    68    31    32 2   
    69    31    64 1   
    70    33    34 1   
    71    33    65 1   
    72    33    66 1   
    73    34    67 1   
    74    34    68 1   
    75    69    71 1   
    76    69    72 1   
@<TRIPOS>SUBSTRUCTURE
     1 7HT         1 TEMP              0 ****  ****    0 ROOT
