@<TRIPOS>MOLECULE
7HU
   66    69     1     0     0
SMALL
No Charge or Current Charge


@<TRIPOS>ATOM
      1 C1           0.2310     2.2720     2.8970 c3         1 7HU       0.135900
      2 C3           1.3520     2.2840     0.7520 c3         1 7HU       0.154600
      3 C5           3.8700     2.2980     0.5250 c6         1 7HU       0.099600
      4 C7           5.1650     0.1930    -0.3760 c6         1 7HU       0.116300
      5 C8           6.3470    -0.1260    -1.3170 c3         1 7HU      -0.132100
      6 C11          1.3320    -0.5070    -0.4680 c3         1 7HU       0.089800
      7 C12          1.1080    -2.0370    -0.2460 c          1 7HU       0.610100
      8 C15         -0.4280    -3.9200     0.3530 c5         1 7HU       0.095000
      9 C16         -1.9940    -4.0080     0.6310 c5         1 7HU      -0.107300
     10 C19         -2.4980    -2.7120    -0.0050 ca         1 7HU       0.321300
     11 C21         -4.0900    -1.1800    -0.6840 ca         1 7HU       0.322900
     12 C22         -3.1010    -0.2940    -1.1690 ca         1 7HU      -0.101300
     13 C23         -3.4840     1.0420    -1.7940 c3         1 7HU       0.012200
     14 C24         -2.7500     2.2080    -1.1390 ca         1 7HU      -0.079300
     15 C25         -1.7520     2.9140    -1.8410 ca         1 7HU      -0.106000
     16 C26         -1.0800     3.9870    -1.2310 ca         1 7HU      -0.117000
     17 C27         -1.3980     4.3600     0.0860 ca         1 7HU      -0.120000
     18 C28         -2.3870     3.6560     0.7930 ca         1 7HU      -0.117000
     19 C31         -1.4630    -1.9040    -0.4540 ca         1 7HU      -0.083000
     20 O2           1.3550     1.8270     2.1200 os         1 7HU      -0.446000
     21 C4           2.5590     1.6710    -0.0400 c6         1 7HU       0.174500
     22 C9           3.7940    -0.3180    -0.9050 c6         1 7HU       0.139800
     23 N10          2.6320     0.1520    -0.0690 n3         1 7HU      -0.696600
     24 O13          2.0520    -2.8140    -0.1120 o          1 7HU      -0.572100
     25 N14         -0.2250    -2.5250    -0.1160 n          1 7HU      -0.212400
     26 C18         -2.3000    -4.0340     2.1510 c3         1 7HU      -0.079100
     27 N20         -3.8040    -2.3740    -0.1120 nb         1 7HU      -0.616000
     28 C29         -3.0600     2.5830     0.1830 ca         1 7HU      -0.106000
     29 C30         -1.7470    -0.6640    -1.0580 ca         1 7HU      -0.119000
     30 H34          0.1850     3.3680     2.9280 h1         1 7HU       0.045033
     31 H32         -0.7100     1.8970     2.4720 h1         1 7HU       0.045033
     32 H33          0.3080     1.9040     3.9280 h1         1 7HU       0.045033
     33 H35          0.4130     2.0150     0.2510 h1         1 7HU       0.045700
     34 H36          1.4300     3.3790     0.7140 h1         1 7HU       0.045700
     35 H38          3.8780     3.3900     0.4350 hx         1 7HU       0.112700
     36 H39          3.9970     2.0270     1.5790 hx         1 7HU       0.112700
     37 H42          5.3650    -0.2120     0.6250 hx         1 7HU       0.127700
     38 H45          7.2900     0.2670    -0.9190 hc         1 7HU       0.077033
     39 H43          6.4690    -1.2100    -1.4350 hc         1 7HU       0.077033
     40 H44          6.1970     0.3000    -2.3160 hc         1 7HU       0.077033
     41 H49          1.1280    -0.3110    -1.5280 h1         1 7HU       0.075200
     42 H48          0.5240    -0.0600     0.1180 h1         1 7HU       0.075200
     43 H51          0.1610    -4.1350     1.2540 h1         1 7HU       0.070200
     44 H50         -0.1160    -4.6280    -0.4270 h1         1 7HU       0.070200
     45 H58         -5.1470    -0.9250    -0.7550 h4         1 7HU       0.032100
     46 H60         -3.2730     1.0130    -2.8700 hc         1 7HU       0.068200
     47 H59         -4.5660     1.2050    -1.7140 hc         1 7HU       0.068200
     48 H61         -1.4980     2.6340    -2.8610 ha         1 7HU       0.119000
     49 H62         -0.3130     4.5300    -1.7800 ha         1 7HU       0.115000
     50 H63         -0.8780     5.1910     0.5580 ha         1 7HU       0.114000
     51 H64         -2.6340     3.9430     1.8130 ha         1 7HU       0.115000
     52 H37          2.4520     2.0290    -1.0740 h1         1 7HU       0.038700
     53 H47          3.6690     0.0180    -1.9450 h1         1 7HU       0.077700
     54 H46          3.8480    -1.4140    -0.9380 h1         1 7HU       0.077700
     55 H52         -2.1950    -6.1870     0.3860 hc         1 7HU       0.048033
     56 H53         -3.7100    -5.3010     0.1410 hc         1 7HU       0.048033
     57 H54         -2.4570    -5.2730    -1.1080 hc         1 7HU       0.048033
     58 H57         -1.8740    -3.1570     2.6550 hc         1 7HU       0.048033
     59 H55         -3.3800    -4.0320     2.3430 hc         1 7HU       0.048033
     60 H56         -1.8790    -4.9270     2.6290 hc         1 7HU       0.048033
     61 H65         -3.8250     2.0430     0.7370 ha         1 7HU       0.119000
     62 H66         -0.9870     0.0010    -1.4490 ha         1 7HU       0.114000
     63 N6           5.0980     1.7300    -0.2500 ny         1 7HU      -0.821000
     64 H41          5.9760     2.0830     0.1870 hn         1 7HU       0.496000
     65 C17         -2.6260    -5.2650    -0.0240 c3         1 7HU      -0.079100
     66 H40          5.1050     2.1440    -1.2060 hn         1 7HU       0.496000
@<TRIPOS>BOND
     1     1    20 1   
     2     1    30 1   
     3     1    31 1   
     4     1    32 1   
     5     2    20 1   
     6     2    21 1   
     7     2    33 1   
     8     2    34 1   
     9     3    21 1   
    10     3    35 1   
    11     3    36 1   
    12     3    63 1   
    13     4     5 1   
    14     4    22 1   
    15     4    37 1   
    16     4    63 1   
    17     5    38 1   
    18     5    39 1   
    19     5    40 1   
    20     6     7 1   
    21     6    23 1   
    22     6    41 1   
    23     6    42 1   
    24     7    24 2   
    25     7    25 1   
    26     8     9 1   
    27     8    25 1   
    28     8    43 1   
    29     8    44 1   
    30     9    10 1   
    31     9    26 1   
    32     9    65 1   
    33    10    19 ar  
    34    10    27 ar  
    35    11    12 ar  
    36    11    27 ar  
    37    11    45 1   
    38    12    13 1   
    39    12    29 ar  
    40    13    14 1   
    41    13    46 1   
    42    13    47 1   
    43    14    15 ar  
    44    14    28 ar  
    45    15    16 ar  
    46    15    48 1   
    47    16    17 ar  
    48    16    49 1   
    49    17    18 ar  
    50    17    50 1   
    51    18    28 ar  
    52    18    51 1   
    53    19    25 1   
    54    19    29 ar  
    55    21    23 1   
    56    21    52 1   
    57    22    23 1   
    58    22    53 1   
    59    22    54 1   
    60    26    58 1   
    61    26    59 1   
    62    26    60 1   
    63    28    61 1   
    64    29    62 1   
    65    55    65 1   
    66    56    65 1   
    67    57    65 1   
    68    63    64 1   
    69    63    66 1   
@<TRIPOS>SUBSTRUCTURE
     1 7HU         1 TEMP              0 ****  ****    0 ROOT
