@<TRIPOS>MOLECULE
7HU
   66    69     1     0     0
SMALL
abcg2


@<TRIPOS>ATOM
      1 C1           0.8090     2.8040     2.9040 c3         1 7HU       0.135900
      2 C3           1.6330     2.5080     0.7430 c3         1 7HU       0.154600
      3 C5           4.0360     2.1200     0.3260 c6         1 7HU       0.099600
      4 C7           4.8780    -0.0590    -0.5070 c6         1 7HU       0.116300
      5 C8           5.8880    -0.6950    -1.4380 c3         1 7HU      -0.132100
      6 C11          1.1710    -0.2400    -0.1380 c3         1 7HU       0.089800
      7 C12          1.0080    -1.6250     0.4600 c          1 7HU       0.610100
      8 C15         -0.4080    -3.5470     0.9490 c5         1 7HU       0.095000
      9 C16         -1.8060    -4.0140     0.5010 c5         1 7HU      -0.107300
     10 C19         -2.4030    -2.7350    -0.0170 ca         1 7HU       0.321300
     11 C21         -4.0310    -1.3950    -0.8380 ca         1 7HU       0.322900
     12 C22         -3.1500    -0.3430    -1.0320 ca         1 7HU      -0.101300
     13 C23         -3.6200     0.9590    -1.6350 c3         1 7HU       0.012200
     14 C24         -2.9350     2.1640    -1.0490 ca         1 7HU      -0.079300
     15 C25         -1.9830     2.8720    -1.7760 ca         1 7HU      -0.106000
     16 C26         -1.3240     3.9610    -1.2180 ca         1 7HU      -0.117000
     17 C27         -1.6110     4.3560     0.0810 ca         1 7HU      -0.120000
     18 C28         -2.5590     3.6540     0.8180 ca         1 7HU      -0.117000
     19 C31         -1.4290    -1.7400    -0.1490 ca         1 7HU      -0.083000
     20 O2           1.7200     2.1150     2.0830 os         1 7HU      -0.446000
     21 C4           2.6280     1.7190    -0.0940 c6         1 7HU       0.174500
     22 C9           3.4440    -0.3720    -0.8840 c6         1 7HU       0.139800
     23 N10          2.5080     0.2700     0.0220 n3         1 7HU      -0.696600
     24 O13          1.9100    -2.1940     1.0450 o          1 7HU      -0.572100
     25 N14         -0.2090    -2.2250     0.3310 n          1 7HU      -0.212400
     26 C18         -2.6030    -4.6090     1.6570 c3         1 7HU      -0.079100
     27 N20         -3.6630    -2.5780    -0.3460 nb         1 7HU      -0.616000
     28 C29         -3.2130     2.5680     0.2560 ca         1 7HU      -0.106000
     29 C30         -1.8120    -0.5190    -0.6770 ca         1 7HU      -0.119000
     30 H34          0.9400     3.8900     2.8430 h1         1 7HU       0.045033
     31 H32         -0.2310     2.5750     2.6400 h1         1 7HU       0.045033
     32 H33          0.9810     2.4900     3.9320 h1         1 7HU       0.045033
     33 H35          0.6130     2.3850     0.3530 h1         1 7HU       0.045700
     34 H36          1.8610     3.5770     0.6180 h1         1 7HU       0.045700
     35 H38          4.1910     3.1890     0.2010 hx         1 7HU       0.112700
     36 H39          4.2340     1.8430     1.3590 hx         1 7HU       0.112700
     37 H42          5.0580    -0.3680     0.5230 hx         1 7HU       0.127700
     38 H45          6.9070    -0.4230    -1.1640 hc         1 7HU       0.077033
     39 H43          5.8040    -1.7780    -1.3710 hc         1 7HU       0.077033
     40 H44          5.7180    -0.4060    -2.4750 hc         1 7HU       0.077033
     41 H49          0.8440    -0.2490    -1.1890 h1         1 7HU       0.075200
     42 H48          0.4740     0.3990     0.4050 h1         1 7HU       0.075200
     43 H51         -0.3490    -3.4470     2.0350 h1         1 7HU       0.070200
     44 H50          0.3760    -4.2330     0.6330 h1         1 7HU       0.070200
     45 H58         -5.0800    -1.2790    -1.0900 h4         1 7HU       0.032100
     46 H60         -3.4470     0.9330    -2.7150 hc         1 7HU       0.068200
     47 H59         -4.7020     1.0390    -1.5020 hc         1 7HU       0.068200
     48 H61         -1.7520     2.5670    -2.7910 ha         1 7HU       0.119000
     49 H62         -0.5860     4.4980    -1.7990 ha         1 7HU       0.115000
     50 H63         -1.0970     5.2010     0.5210 ha         1 7HU       0.114000
     51 H64         -2.7880     3.9540     1.8320 ha         1 7HU       0.115000
     52 H37          2.4720     2.0550    -1.1350 h1         1 7HU       0.038700
     53 H47          3.2660    -0.0780    -1.9330 h1         1 7HU       0.077700
     54 H46          3.3330    -1.4530    -0.8330 h1         1 7HU       0.077700
     55 H52         -1.2250    -5.9410    -0.3060 hc         1 7HU       0.048033
     56 H53         -2.7020    -5.2810    -1.0160 hc         1 7HU       0.048033
     57 H54         -1.1290    -4.6290    -1.4840 hc         1 7HU       0.048033
     58 H57         -2.6930    -3.9040     2.4840 hc         1 7HU       0.048033
     59 H55         -3.6070    -4.8810     1.3310 hc         1 7HU       0.048033
     60 H56         -2.1140    -5.5100     2.0300 hc         1 7HU       0.048033
     61 H65         -3.9490     2.0250     0.8400 ha         1 7HU       0.119000
     62 H66         -1.1360     0.3080    -0.8160 ha         1 7HU       0.114000
     63 N6           5.0450     1.4270    -0.5150 ny         1 7HU      -0.821000
     64 H41          5.9820     1.6750    -0.1940 hn         1 7HU       0.496000
     65 C17         -1.7080    -5.0230    -0.6470 c3         1 7HU      -0.079100
     66 H40          4.9870     1.7750    -1.4750 hn         1 7HU       0.496000
@<TRIPOS>BOND
     1     1    20 1   
     2     1    30 1   
     3     1    31 1   
     4     1    32 1   
     5     2    20 1   
     6     2    21 1   
     7     2    33 1   
     8     2    34 1   
     9     3    21 1   
    10     3    35 1   
    11     3    36 1   
    12     3    63 1   
    13     4     5 1   
    14     4    22 1   
    15     4    37 1   
    16     4    63 1   
    17     5    38 1   
    18     5    39 1   
    19     5    40 1   
    20     6     7 1   
    21     6    23 1   
    22     6    41 1   
    23     6    42 1   
    24     7    24 2   
    25     7    25 1   
    26     8     9 1   
    27     8    25 1   
    28     8    43 1   
    29     8    44 1   
    30     9    10 1   
    31     9    26 1   
    32     9    65 1   
    33    10    19 ar  
    34    10    27 ar  
    35    11    12 ar  
    36    11    27 ar  
    37    11    45 1   
    38    12    13 1   
    39    12    29 ar  
    40    13    14 1   
    41    13    46 1   
    42    13    47 1   
    43    14    15 ar  
    44    14    28 ar  
    45    15    16 ar  
    46    15    48 1   
    47    16    17 ar  
    48    16    49 1   
    49    17    18 ar  
    50    17    50 1   
    51    18    28 ar  
    52    18    51 1   
    53    19    25 1   
    54    19    29 ar  
    55    21    23 1   
    56    21    52 1   
    57    22    23 1   
    58    22    53 1   
    59    22    54 1   
    60    26    58 1   
    61    26    59 1   
    62    26    60 1   
    63    28    61 1   
    64    29    62 1   
    65    55    65 1   
    66    56    65 1   
    67    57    65 1   
    68    63    64 1   
    69    63    66 1   
@<TRIPOS>SUBSTRUCTURE
     1 7HU         1 TEMP              0 ****  ****    0 ROOT
