@<TRIPOS>MOLECULE
7HV
   26    26     1     0     0
SMALL
bcc


@<TRIPOS>ATOM
      1 CAH         -2.2800     0.6380    -0.9760 ca         1 7HV      -0.120000
      2 CAO         -3.5820     0.3660    -0.5770 ca         1 7HV       0.022400
      3 CLE         -4.8330     1.4890    -0.9590 cl         1 7HV      -0.103400
      4 CAN         -3.8650    -0.7970     0.1270 ca         1 7HV       0.018400
      5 CLD         -5.4750    -1.1550     0.6290 cl         1 7HV      -0.105400
      6 CAG         -2.8390    -1.6810     0.4320 ca         1 7HV      -0.124000
      7 CAF         -1.5440    -1.4040     0.0320 ca         1 7HV      -0.091000
      8 CAM         -1.2510    -0.2450    -0.6830 ca         1 7HV      -0.059300
      9 CAK          0.1550     0.0360    -1.1420 c3         1 7HV       0.200100
     10 NAL          1.1040    -0.1550    -0.0650 n7         1 7HV      -0.811200
     11 CAI          2.4820    -0.0350    -0.5060 c3         1 7HV       0.194800
     12 CAJ          3.4250    -0.2800     0.6590 c3         1 7HV      -0.248600
     13 SAP          5.1570    -0.2760     0.1660 s6         1 7HV       1.210800
     14 OAC          5.9170    -0.5230     1.4070 o          1 7HV      -0.696200
     15 OAB          5.2910    -1.3640    -0.8240 o          1 7HV      -0.696200
     16 OAA          5.4120     1.0600    -0.4120 o          1 7HV      -0.696200
     17 H1          -2.0730     1.5500    -1.5210 ha         1 7HV       0.146000
     18 H2          -3.0600    -2.5860     0.9820 ha         1 7HV       0.145000
     19 H3          -0.7510    -2.0960     0.2820 ha         1 7HV       0.165000
     20 H4           0.4100    -0.6650    -1.9430 h1         1 7HV       0.037700
     21 H5           0.1980     1.0380    -1.5920 h1         1 7HV       0.037700
     22 H6           0.9230     0.5320     0.6580 hn         1 7HV       0.348800
     23 H8           2.6570    -0.7880    -1.2770 h1         1 7HV       0.042700
     24 H9           2.7030     0.9420    -0.9570 h1         1 7HV       0.042700
     25 H10          3.3040     0.4860     1.4290 h1         1 7HV       0.070700
     26 H11          3.2190    -1.2510     1.1140 h1         1 7HV       0.070700
@<TRIPOS>BOND
     1     1     2 ar  
     2     1     8 ar  
     3     1    17 1   
     4     2     3 1   
     5     2     4 ar  
     6     4     5 1   
     7     4     6 ar  
     8     6     7 ar  
     9     6    18 1   
    10     7     8 ar  
    11     7    19 1   
    12     8     9 1   
    13     9    10 1   
    14     9    20 1   
    15     9    21 1   
    16    10    11 1   
    17    10    22 1   
    18    11    12 1   
    19    11    23 1   
    20    11    24 1   
    21    12    13 1   
    22    12    25 1   
    23    12    26 1   
    24    13    14 1   
    25    13    15 1   
    26    13    16 1   
@<TRIPOS>SUBSTRUCTURE
     1 7HV         1 TEMP              0 ****  ****    0 ROOT
