@<TRIPOS>MOLECULE
7HV
   26    26     1     0     0
SMALL
No Charge or Current Charge


@<TRIPOS>ATOM
      1 CAH         -2.0720     0.6850    -0.6980 ca         1 7HV      -0.102000
      2 CAO         -3.3850     0.5890    -0.2040 ca         1 7HV       0.114000
      3 ClE         -4.3830     2.0430    -0.1420 cl         1 7HV      -0.195000
      4 CAN         -3.8840    -0.6570     0.2320 ca         1 7HV       0.110000
      5 ClD         -5.5260    -0.8140     0.8580 cl         1 7HV      -0.197000
      6 CAG         -3.0650    -1.7970     0.1720 ca         1 7HV      -0.106000
      7 CAF         -1.7520    -1.6980    -0.3230 ca         1 7HV      -0.073000
      8 CAM         -1.2480    -0.4570    -0.7610 ca         1 7HV      -0.059300
      9 CAK          0.1730    -0.3550    -1.2980 c3         1 7HV       0.200100
     10 NAL          1.1420    -0.2980    -0.1890 n7         1 7HV      -0.866400
     11 CAI          2.5480    -0.1730    -0.5950 c3         1 7HV       0.194800
     12 CAJ          3.3940    -0.0970     0.6740 c3         1 7HV      -0.359400
     13 SAP          5.1490     0.0430     0.2960 s6         1 7HV       1.321600
     14 OAC          5.7800     0.1020     1.6220 o          1 7HV      -0.696200
     15 OAB          5.4480    -1.1790    -0.4660 o          1 7HV      -0.696200
     16 OAA          5.2460     1.2870    -0.4800 o          1 7HV      -0.696200
     17 H1          -1.6950     1.6480    -1.0310 ha         1 7HV       0.128000
     18 H2          -3.4470    -2.7570     0.5090 ha         1 7HV       0.127000
     19 H3          -1.1210    -2.5840    -0.3630 ha         1 7HV       0.147000
     20 H4           0.3760    -1.2240    -1.9390 h1         1 7HV       0.037700
     21 H5           0.2580     0.5410    -1.9280 h1         1 7HV       0.037700
     22 H6           0.9100     0.5160     0.3910 hn         1 7HV       0.404000
     23 H8           2.8530    -1.0400    -1.1990 h1         1 7HV       0.042700
     24 H9           2.6980     0.7340    -1.1980 h1         1 7HV       0.042700
     25 H10          3.1310     0.7830     1.2690 h1         1 7HV       0.070700
     26 H11          3.2750    -1.0040     1.2750 h1         1 7HV       0.070700
@<TRIPOS>BOND
     1     1     2 ar  
     2     1     8 ar  
     3     1    17 1   
     4     2     3 1   
     5     2     4 ar  
     6     4     5 1   
     7     4     6 ar  
     8     6     7 ar  
     9     6    18 1   
    10     7     8 ar  
    11     7    19 1   
    12     8     9 1   
    13     9    10 1   
    14     9    20 1   
    15     9    21 1   
    16    10    11 1   
    17    10    22 1   
    18    11    12 1   
    19    11    23 1   
    20    11    24 1   
    21    12    13 1   
    22    12    25 1   
    23    12    26 1   
    24    13    14 1   
    25    13    15 1   
    26    13    16 1   
@<TRIPOS>SUBSTRUCTURE
     1 7HV         1 TEMP              0 ****  ****    0 ROOT
