@<TRIPOS>MOLECULE
7HW
   59    58     1     0     0
SMALL
No Charge or Current Charge


@<TRIPOS>ATOM
      1 C1          -8.8310     3.1300     0.6510 c3         1 7HW      -0.087100
      2 C2          -8.0290     2.1820    -0.2680 c3         1 7HW      -0.108400
      3 C4          -7.1090    -0.2090    -0.6770 c3         1 7HW       0.142300
      4 C12          0.1140    -0.2710     1.9430 c2         1 7HW      -0.238200
      5 C13          1.3410     0.2740     1.8600 c2         1 7HW      -0.192200
      6 C14          2.1340     0.5580     0.5970 c3         1 7HW      -0.009000
      7 C15          2.9400     1.8370     0.7380 c2         1 7HW      -0.253200
      8 C16          4.1880     2.0650     0.2920 c2         1 7HW      -0.179200
      9 C17          5.0770     1.1020    -0.4730 c3         1 7HW      -0.007000
     10 C18          5.9590     1.8500    -1.4560 c2         1 7HW      -0.275200
     11 O4          10.9220    -0.4550    -0.0690 o          1 7HW      -0.741000
     12 C22          9.7350    -0.7120     0.0620 c          1 7HW       0.717000
     13 O3           9.2860    -1.3730     0.9870 o          1 7HW      -0.741000
     14 C21          8.7470    -0.1220    -0.9580 c3         1 7HW      -0.202400
     15 C20          8.2680     1.2720    -0.4910 c3         1 7HW      -0.038200
     16 C19          7.3030     1.9090    -1.4750 c2         1 7HW      -0.169200
     17 C11         -0.7580    -0.7500     0.7960 c3         1 7HW      -0.010000
     18 C10         -1.5080    -2.0140     1.1740 c2         1 7HW      -0.198200
     19 C9          -2.7680    -2.3420     0.8380 c2         1 7HW      -0.230200
     20 C8          -3.7280    -1.5350    -0.0150 c3         1 7HW      -0.011000
     21 C7          -4.6040    -2.4510    -0.8510 c2         1 7HW      -0.201200
     22 C5          -6.9070    -1.6240    -0.0790 c3         1 7HW      -0.072200
     23 O2          -7.6460    -0.3380    -2.0070 oh         1 7HW      -0.659000
     24 C3          -8.0420     0.6990     0.1870 c3         1 7HW       0.135300
     25 O1          -9.3810     0.1920     0.1090 oh         1 7HW      -0.661000
     26 H1          -8.7470     4.1650     0.2960 hc         1 7HW       0.034367
     27 H2          -9.8940     2.8610     0.6630 hc         1 7HW       0.034367
     28 H3          -8.4510     3.0890     1.6780 hc         1 7HW       0.034367
     29 H4          -8.4180     2.2600    -1.2910 hc         1 7HW       0.050200
     30 H5          -6.9900     2.5320    -0.3010 hc         1 7HW       0.050200
     31 H6          -6.1220     0.2740    -0.7180 h1         1 7HW       0.075700
     32 H7          -6.4480    -3.2020    -1.5430 ha         1 7HW       0.169000
     33 H8          -0.3420    -0.4070     2.9260 ha         1 7HW       0.163000
     34 H10          1.8590     0.5640     2.7770 ha         1 7HW       0.171000
     35 H12          2.7910    -0.2950     0.3910 hc         1 7HW       0.049700
     36 H13          1.4670     0.6510    -0.2670 hc         1 7HW       0.049700
     37 H14          2.4100     2.6330     1.2670 ha         1 7HW       0.158000
     38 H16          4.6520     3.0380     0.4720 ha         1 7HW       0.170000
     39 H18          5.6750     0.5190     0.2360 hc         1 7HW       0.052200
     40 H19          4.4730     0.3720    -1.0240 hc         1 7HW       0.052200
     41 H20          5.3940     2.3690    -2.2330 ha         1 7HW       0.145000
     42 H22          9.2410     0.0400    -1.9240 hc         1 7HW       0.017700
     43 H23          7.8440    -0.7410    -1.0230 hc         1 7HW       0.017700
     44 H24          7.8110     1.1820     0.5010 hc         1 7HW       0.050200
     45 H25          9.1380     1.9280    -0.3570 hc         1 7HW       0.050200
     46 H26          7.8010     2.4810    -2.2610 ha         1 7HW       0.151000
     47 H27         -1.4560     0.0500     0.5230 hc         1 7HW       0.049700
     48 H28         -0.1530    -0.9500    -0.0960 hc         1 7HW       0.049700
     49 H29         -0.9240    -2.7020     1.7900 ha         1 7HW       0.171000
     50 H30         -3.1860    -3.2870     1.1920 ha         1 7HW       0.166000
     51 H31         -4.3330    -0.8900     0.6330 hc         1 7HW       0.049200
     52 H32         -3.1810    -0.8610    -0.6850 hc         1 7HW       0.049200
     53 H33         -4.0340    -3.1350    -1.4840 ha         1 7HW       0.171000
     54 H34         -6.5390    -1.5220     0.9500 hc         1 7HW       0.055700
     55 H35         -7.8760    -2.1320     0.0050 hc         1 7HW       0.055700
     56 H36         -7.0310    -0.9260    -2.4970 ho         1 7HW       0.439000
     57 H37         -7.6830     0.6640     1.2260 h1         1 7HW       0.072700
     58 H38         -9.4500    -0.1560    -0.8080 ho         1 7HW       0.439000
     59 C6          -5.9480    -2.4830    -0.8890 c2         1 7HW      -0.223200
@<TRIPOS>BOND
     1     1     2 1   
     2     1    26 1   
     3     1    27 1   
     4     1    28 1   
     5     2    24 1   
     6     2    29 1   
     7     2    30 1   
     8     3    22 1   
     9     3    23 1   
    10     3    24 1   
    11     3    31 1   
    12     4     5 2   
    13     4    17 1   
    14     4    33 1   
    15     5     6 1   
    16     5    34 1   
    17     6     7 1   
    18     6    35 1   
    19     6    36 1   
    20     7     8 2   
    21     7    37 1   
    22     8     9 1   
    23     8    38 1   
    24     9    10 1   
    25     9    39 1   
    26     9    40 1   
    27    10    16 2   
    28    10    41 1   
    29    11    12 1   
    30    12    13 1   
    31    12    14 1   
    32    14    15 1   
    33    14    42 1   
    34    14    43 1   
    35    15    16 1   
    36    15    44 1   
    37    15    45 1   
    38    16    46 1   
    39    17    18 1   
    40    17    47 1   
    41    17    48 1   
    42    18    19 2   
    43    18    49 1   
    44    19    20 1   
    45    19    50 1   
    46    20    21 1   
    47    20    51 1   
    48    20    52 1   
    49    21    53 1   
    50    21    59 2   
    51    22    54 1   
    52    22    55 1   
    53    22    59 1   
    54    23    56 1   
    55    24    25 1   
    56    24    57 1   
    57    25    58 1   
    58    32    59 1   
@<TRIPOS>SUBSTRUCTURE
     1 7HW         1 TEMP              0 ****  ****    0 ROOT
