@<TRIPOS>MOLECULE
7HW
   59    58     1     0     0
SMALL
abcg2


@<TRIPOS>ATOM
      1 C1         -10.8050     1.1620     1.7310 c3         1 7HW      -0.087100
      2 C2          -9.8070     1.2120     0.5820 c3         1 7HW      -0.108400
      3 C4          -7.8000     0.1550    -0.5550 c3         1 7HW       0.142300
      4 C12          0.2600     0.8420     0.9680 c2         1 7HW      -0.238200
      5 C13          1.5890     0.8010     1.0510 c2         1 7HW      -0.192200
      6 C14          2.5550     0.3090     0.0130 c3         1 7HW      -0.009000
      7 C15          3.4480     1.4210    -0.4590 c2         1 7HW      -0.253200
      8 C16          4.7770     1.4770    -0.3960 c2         1 7HW      -0.179200
      9 C17          5.7170     0.4270     0.1210 c3         1 7HW      -0.007000
     10 C18          6.5030    -0.1700    -1.0110 c2         1 7HW      -0.275200
     11 O4          11.0620     1.4800     1.0790 o          1 7HW      -0.741000
     12 C22         11.0500     0.2420     0.9290 c          1 7HW       0.717000
     13 O3          11.8940    -0.5650     1.3720 o          1 7HW      -0.741000
     14 C21          9.8950    -0.3740     0.1200 c3         1 7HW      -0.202400
     15 C20          8.8460     0.6100    -0.3890 c3         1 7HW      -0.038200
     16 C19          7.8140    -0.0750    -1.2290 c2         1 7HW      -0.169200
     17 C11         -0.5990     0.3740    -0.1710 c3         1 7HW      -0.010000
     18 C10         -1.3380    -0.8780     0.2060 c2         1 7HW      -0.198200
     19 C9          -2.6560    -1.0510     0.2860 c2         1 7HW      -0.230200
     20 C8          -3.7290    -0.0480    -0.0270 c3         1 7HW      -0.011000
     21 C7          -4.4050    -0.4000    -1.3220 c2         1 7HW      -0.201200
     22 C5          -6.7250    -0.9300    -0.4540 c3         1 7HW      -0.072200
     23 O2          -8.3860     0.1970    -1.8410 oh         1 7HW      -0.659000
     24 C3          -8.8590     0.0180     0.5480 c3         1 7HW       0.135300
     25 O1          -9.5570    -1.2100     0.4430 oh         1 7HW      -0.661000
     26 H1         -11.4380     2.0490     1.7330 hc         1 7HW       0.034367
     27 H2         -11.4580     0.2930     1.6630 hc         1 7HW       0.034367
     28 H3         -10.2950     1.1190     2.6960 hc         1 7HW       0.034367
     29 H4         -10.3380     1.2810    -0.3730 hc         1 7HW       0.050200
     30 H5          -9.2070     2.1230     0.6590 hc         1 7HW       0.050200
     31 H6          -7.3140     1.1270    -0.4180 h1         1 7HW       0.075700
     32 H7          -5.9760    -1.0110    -2.5180 ha         1 7HW       0.169000
     33 H8          -0.2870     1.2280     1.8240 ha         1 7HW       0.163000
     34 H10          2.0490     1.1740     1.9620 ha         1 7HW       0.171000
     35 H12          3.1440    -0.5070     0.4360 hc         1 7HW       0.049700
     36 H13          2.0220    -0.1110    -0.8430 hc         1 7HW       0.049700
     37 H14          2.9270     2.2720    -0.8870 ha         1 7HW       0.158000
     38 H16          5.2620     2.3660    -0.7900 ha         1 7HW       0.170000
     39 H18          6.3820     0.8750     0.8620 hc         1 7HW       0.052200
     40 H19          5.1680    -0.3650     0.6350 hc         1 7HW       0.052200
     41 H20          5.9060    -0.7170    -1.7360 ha         1 7HW       0.145000
     42 H22         10.3270    -0.9190    -0.7280 hc         1 7HW       0.017700
     43 H23          9.4110    -1.1410     0.7330 hc         1 7HW       0.017700
     44 H24          8.3900     1.1350     0.4520 hc         1 7HW       0.050200
     45 H25          9.3420     1.3760    -0.9930 hc         1 7HW       0.050200
     46 H26          8.2020    -0.5680    -2.1170 ha         1 7HW       0.151000
     47 H27         -1.2980     1.1680    -0.4420 hc         1 7HW       0.049700
     48 H28          0.0050     0.1780    -1.0600 hc         1 7HW       0.049700
     49 H29         -0.7020    -1.7250     0.4500 ha         1 7HW       0.171000
     50 H30         -3.0200    -2.0330     0.5730 ha         1 7HW       0.166000
     51 H31         -4.4490    -0.0190     0.7930 hc         1 7HW       0.049200
     52 H32         -3.3100     0.9580    -0.1060 hc         1 7HW       0.049200
     53 H33         -3.7610    -0.3450    -2.1960 ha         1 7HW       0.171000
     54 H34         -6.2940    -0.8950     0.5490 hc         1 7HW       0.055700
     55 H35         -7.1990    -1.9130    -0.5460 hc         1 7HW       0.055700
     56 H36         -8.6550    -0.6950    -2.0860 ho         1 7HW       0.439000
     57 H37         -8.3240    -0.0230     1.5050 h1         1 7HW       0.072700
     58 H38        -10.2330    -1.1170    -0.2370 ho         1 7HW       0.439000
     59 C6          -5.6670    -0.7850    -1.5030 c2         1 7HW      -0.223200
@<TRIPOS>BOND
     1     1     2 1   
     2     1    26 1   
     3     1    27 1   
     4     1    28 1   
     5     2    24 1   
     6     2    29 1   
     7     2    30 1   
     8     3    22 1   
     9     3    23 1   
    10     3    24 1   
    11     3    31 1   
    12     4     5 2   
    13     4    17 1   
    14     4    33 1   
    15     5     6 1   
    16     5    34 1   
    17     6     7 1   
    18     6    35 1   
    19     6    36 1   
    20     7     8 2   
    21     7    37 1   
    22     8     9 1   
    23     8    38 1   
    24     9    10 1   
    25     9    39 1   
    26     9    40 1   
    27    10    16 2   
    28    10    41 1   
    29    11    12 1   
    30    12    13 1   
    31    12    14 1   
    32    14    15 1   
    33    14    42 1   
    34    14    43 1   
    35    15    16 1   
    36    15    44 1   
    37    15    45 1   
    38    16    46 1   
    39    17    18 1   
    40    17    47 1   
    41    17    48 1   
    42    18    19 2   
    43    18    49 1   
    44    19    20 1   
    45    19    50 1   
    46    20    21 1   
    47    20    51 1   
    48    20    52 1   
    49    21    53 1   
    50    21    59 2   
    51    22    54 1   
    52    22    55 1   
    53    22    59 1   
    54    23    56 1   
    55    24    25 1   
    56    24    57 1   
    57    25    58 1   
    58    32    59 1   
@<TRIPOS>SUBSTRUCTURE
     1 7HW         1 TEMP              0 ****  ****    0 ROOT
