@<TRIPOS>MOLECULE
7HX
   15    16     1     0     0
SMALL
No Charge or Current Charge


@<TRIPOS>ATOM
      1 O6          -1.8660     1.7900    -0.2400 oh         1 7HX      -0.624300
      2 C6          -1.2690     0.5760    -0.1380 ca         1 7HX       0.404300
      3 N1          -2.0450    -0.5240    -0.0900 nb         1 7HX      -0.239000
      4 C2          -1.3960    -1.7110     0.0120 ca         1 7HX       0.173900
      5 N3          -0.0550    -1.9040     0.0700 nb         1 7HX      -0.213000
      6 C4           0.6980    -0.7890     0.0210 ca         1 7HX       0.146500
      7 C5           0.1250     0.4530    -0.0820 ca         1 7HX      -0.281800
      8 N9           2.0720    -0.6100     0.0560 na         1 7HX      -0.314400
      9 C8           2.4210     0.7570    -0.0240 cc         1 7HX      -0.163100
     10 C7           1.2050     1.4120    -0.1100 cd         1 7HX      -0.212200
     11 H2          -2.0180    -2.6040     0.0500 h5         1 7HX       0.053100
     12 H3           2.7340    -1.3770     0.1300 hn         1 7HX       0.365000
     13 H4           3.4450     1.1260    -0.0140 h4         1 7HX       0.220000
     14 H5           1.1050     2.4950    -0.1860 ha         1 7HX       0.206000
     15 H6          -1.1390     2.4460    -0.2590 ho         1 7HX       0.481000
@<TRIPOS>BOND
     1     1     2 1   
     2     1    15 1   
     3     2     3 ar  
     4     2     7 ar  
     5     3     4 ar  
     6     4     5 ar  
     7     4    11 1   
     8     5     6 ar  
     9     6     7 ar  
    10     6     8 1   
    11     7    10 1   
    12     8     9 1   
    13     8    12 1   
    14     9    10 2   
    15     9    13 1   
    16    10    14 1   
@<TRIPOS>SUBSTRUCTURE
     1 7HX         1 TEMP              0 ****  ****    0 ROOT
