@<TRIPOS>MOLECULE
7HX
   15    16     1     0     0
SMALL
bcc


@<TRIPOS>ATOM
      1 O6          -1.9380     1.7160    -0.2410 oh         1 7HX      -0.585300
      2 C6          -1.2450     0.5870    -0.1380 ca         1 7HX       0.732600
      3 N1          -1.9610    -0.5180    -0.0880 nb         1 7HX      -0.765000
      4 C2          -1.3190    -1.6850     0.0120 ca         1 7HX       0.699900
      5 N3          -0.0190    -1.8840     0.0700 nb         1 7HX      -0.739000
      6 C4           0.6870    -0.7560     0.0180 ca         1 7HX       0.474800
      7 C5           0.1510     0.5390    -0.0860 ca         1 7HX      -0.412400
      8 N9           2.0330    -0.6370     0.0550 na         1 7HX      -0.264100
      9 C8           2.3730     0.6900    -0.0220 cc         1 7HX      -0.113100
     10 C7           1.2470     1.4540    -0.1110 cd         1 7HX      -0.162200
     11 H2          -1.9480    -2.5670     0.0510 h5         1 7HX       0.053100
     12 H3           2.6840    -1.4020     0.1340 hn         1 7HX       0.314700
     13 H4           3.4080     0.9880    -0.0080 h4         1 7HX       0.170000
     14 H5           1.2180     2.5290    -0.1820 ha         1 7HX       0.156000
     15 H6          -1.3540     2.4830    -0.2660 ho         1 7HX       0.442000
@<TRIPOS>BOND
     1     1     2 1   
     2     1    15 1   
     3     2     3 ar  
     4     2     7 ar  
     5     3     4 ar  
     6     4     5 ar  
     7     4    11 1   
     8     5     6 ar  
     9     6     7 ar  
    10     6     8 1   
    11     7    10 1   
    12     8     9 1   
    13     8    12 1   
    14     9    10 2   
    15     9    13 1   
    16    10    14 1   
@<TRIPOS>SUBSTRUCTURE
     1 7HX         1 TEMP              0 ****  ****    0 ROOT
