@<TRIPOS>MOLECULE
7HY
   77    79     1     0     0
SMALL
abcg2


@<TRIPOS>ATOM
      1 C30          2.9410    -0.8800     0.1650 c          1 7HY       0.605100
      2 O39          1.9980    -1.4130     0.7350 o          1 7HY      -0.613100
      3 C31          4.2160    -1.6200    -0.1760 c3         1 7HY      -0.151400
      4 C32          4.5770    -2.6790     0.8650 c3         1 7HY      -0.021100
      5 C33          5.8310    -3.4130     0.4790 ca         1 7HY      -0.083300
      6 C34          5.7660    -4.5990    -0.2480 ca         1 7HY      -0.107000
      7 C35          6.9230    -5.2600    -0.6400 ca         1 7HY      -0.110500
      8 C36          8.1670    -4.7410    -0.3080 ca         1 7HY      -0.112000
      9 C37          8.2450    -3.5580     0.4150 ca         1 7HY      -0.110500
     10 C38          7.0850    -2.9010     0.8040 ca         1 7HY      -0.107000
     11 C02          0.5170     0.5720    -0.6860 c          1 7HY       0.594100
     12 C20          1.7270     1.2150    -0.0050 c3         1 7HY       0.062700
     13 C21          1.9250     2.5960    -0.6190 c3         1 7HY      -0.176400
     14 C22          2.9210     3.4500     0.1520 c          1 7HY       0.598100
     15 N23          3.1700     4.6810    -0.3330 n          1 7HY      -0.412800
     16 C26          2.5570     5.2260    -1.5350 c3         1 7HY       0.100000
     17 C27          1.2960     6.0270    -1.2480 c3         1 7HY      -0.112600
     18 C24          4.0850     5.5590     0.3840 c3         1 7HY       0.100000
     19 C25          5.5330     5.3660    -0.0400 c3         1 7HY      -0.112600
     20 O28          3.4500     3.0300     1.1740 o          1 7HY      -0.601100
     21 N29          2.8980     0.4050    -0.2190 ns         1 7HY      -0.487900
     22 N03         -0.6190     0.6390     0.0210 ns         1 7HY      -0.486900
     23 C04         -1.8650     0.0920    -0.4530 c3         1 7HY       0.035700
     24 C05         -3.0060     0.7670     0.2980 c          1 7HY       0.591100
     25 O18         -2.8660     1.1610     1.4480 o          1 7HY      -0.614100
     26 C19         -1.9510    -1.4220    -0.2370 c3         1 7HY      -0.111100
     27 C11         -8.5570    -1.5280    -0.8080 ca         1 7HY      -0.087000
     28 C10         -8.5020    -0.2980    -1.3990 ca         1 7HY      -0.114000
     29 C12         -7.5960    -1.9000     0.1630 ca         1 7HY      -0.041000
     30 C14         -5.6330    -1.3840     1.5080 ca         1 7HY      -0.103000
     31 C13         -6.5680    -0.9870     0.5200 ca         1 7HY      -0.018000
     32 C15         -5.7100    -2.6180     2.0950 ca         1 7HY      -0.103000
     33 N06         -4.1600     0.8150    -0.3770 ns         1 7HY      -0.498900
     34 C07         -5.4220     1.2680     0.1740 c3         1 7HY       0.144300
     35 C08         -6.5220     0.2850    -0.1230 ca         1 7HY      -0.104300
     36 C09         -7.4760     0.6050    -1.0540 ca         1 7HY      -0.096000
     37 C16         -6.7240    -3.5250     1.7300 ca         1 7HY      -0.105000
     38 C17         -7.6470    -3.1690     0.7860 ca         1 7HY      -0.101000
     39 H30          4.0690    -2.0980    -1.1510 hc         1 7HY       0.061700
     40 H31          5.0430    -0.9180    -0.3020 hc         1 7HY       0.061700
     41 H33          4.7100    -2.2000     1.8380 hc         1 7HY       0.063200
     42 H32          3.7510    -3.3840     0.9680 hc         1 7HY       0.063200
     43 H34          4.7970    -5.0120    -0.5070 ha         1 7HY       0.112500
     44 H35          6.8510    -6.1830    -1.2010 ha         1 7HY       0.111000
     45 H36          9.0710    -5.2570    -0.6070 ha         1 7HY       0.111000
     46 H37          9.2110    -3.1460     0.6780 ha         1 7HY       0.111000
     47 H38          7.1560    -1.9810     1.3730 ha         1 7HY       0.112500
     48 H16          1.5370     1.3190     1.0670 h1         1 7HY       0.086700
     49 H17          2.2360     2.4820    -1.6610 hc         1 7HY       0.077700
     50 H18          0.9640     3.1180    -0.6500 hc         1 7HY       0.077700
     51 H24          3.2970     5.8630    -2.0230 h1         1 7HY       0.052200
     52 H25          2.3460     4.4290    -2.2450 h1         1 7HY       0.052200
     53 H26          0.8910     6.4360    -2.1740 hc         1 7HY       0.042367
     54 H27          0.5250     5.4070    -0.7890 hc         1 7HY       0.042367
     55 H28          1.5020     6.8600    -0.5760 hc         1 7HY       0.042367
     56 H19          3.7730     6.5870     0.1940 h1         1 7HY       0.052200
     57 H20          3.9780     5.3970     1.4560 h1         1 7HY       0.052200
     58 H21          5.8750     4.3540     0.1760 hc         1 7HY       0.042367
     59 H22          5.6610     5.5500    -1.1070 hc         1 7HY       0.042367
     60 H23          6.1790     6.0630     0.4960 hc         1 7HY       0.042367
     61 H29          3.6990     0.8110    -0.6740 hn         1 7HY       0.324500
     62 H7          -0.5830     0.9300     0.9870 hn         1 7HY       0.341500
     63 H8          -1.9520     0.3060    -1.5210 h1         1 7HY       0.075700
     64 H13         -1.8740    -1.6650     0.8230 hc         1 7HY       0.055033
     65 H14         -2.8960    -1.8170    -0.6120 hc         1 7HY       0.055033
     66 H15         -1.1400    -1.9200    -0.7650 hc         1 7HY       0.055033
     67 H1          -9.2390    -0.0130    -2.1390 ha         1 7HY       0.115000
     68 H3          -4.8500    -0.7070     1.8230 ha         1 7HY       0.127000
     69 H4          -4.9850    -2.8990     2.8490 ha         1 7HY       0.117000
     70 H10         -5.2950     1.4180     1.2460 h1         1 7HY       0.064200
     71 H11         -5.6820     2.2410    -0.2490 h1         1 7HY       0.064200
     72 H12         -7.4400     1.5710    -1.5420 ha         1 7HY       0.110000
     73 H5          -6.7700    -4.4980     2.1990 ha         1 7HY       0.115000
     74 H6          -8.4340    -3.8580     0.5020 ha         1 7HY       0.113000
     75 H9          -4.1660     0.5140    -1.3390 hn         1 7HY       0.319500
     76 H2          -9.3340    -2.2340    -1.0730 ha         1 7HY       0.115000
     77 O01          0.5890     0.1120    -1.8140 o          1 7HY      -0.607100
@<TRIPOS>BOND
     1     1     2 2   
     2     1     3 1   
     3     1    21 1   
     4     3     4 1   
     5     3    39 1   
     6     3    40 1   
     7     4     5 1   
     8     4    41 1   
     9     4    42 1   
    10     5     6 ar  
    11     5    10 ar  
    12     6     7 ar  
    13     6    43 1   
    14     7     8 ar  
    15     7    44 1   
    16     8     9 ar  
    17     8    45 1   
    18     9    10 ar  
    19     9    46 1   
    20    10    47 1   
    21    11    12 1   
    22    11    22 1   
    23    11    77 2   
    24    12    13 1   
    25    12    21 1   
    26    12    48 1   
    27    13    14 1   
    28    13    49 1   
    29    13    50 1   
    30    14    15 1   
    31    14    20 2   
    32    15    16 1   
    33    15    18 1   
    34    16    17 1   
    35    16    51 1   
    36    16    52 1   
    37    17    53 1   
    38    17    54 1   
    39    17    55 1   
    40    18    19 1   
    41    18    56 1   
    42    18    57 1   
    43    19    58 1   
    44    19    59 1   
    45    19    60 1   
    46    21    61 1   
    47    22    23 1   
    48    22    62 1   
    49    23    24 1   
    50    23    26 1   
    51    23    63 1   
    52    24    25 2   
    53    24    33 1   
    54    26    64 1   
    55    26    65 1   
    56    26    66 1   
    57    27    28 ar  
    58    27    29 ar  
    59    27    76 1   
    60    28    36 ar  
    61    28    67 1   
    62    29    31 ar  
    63    29    38 ar  
    64    30    31 ar  
    65    30    32 ar  
    66    30    68 1   
    67    31    35 ar  
    68    32    37 ar  
    69    32    69 1   
    70    33    34 1   
    71    33    75 1   
    72    34    35 1   
    73    34    70 1   
    74    34    71 1   
    75    35    36 ar  
    76    36    72 1   
    77    37    38 ar  
    78    37    73 1   
    79    38    74 1   
@<TRIPOS>SUBSTRUCTURE
     1 7HY         1 TEMP              0 ****  ****    0 ROOT
