@<TRIPOS>MOLECULE
7HY
   77    79     1     0     0
SMALL
No Charge or Current Charge


@<TRIPOS>ATOM
      1 C30          3.6130    -1.4920     0.7600 c          1 7HY       0.605100
      2 O39          3.3170    -1.6310     1.9390 o          1 7HY      -0.613100
      3 C31          4.8320    -2.1720     0.1340 c3         1 7HY      -0.151400
      4 C32          6.1390    -1.4600     0.5480 c3         1 7HY      -0.021100
      5 C33          7.3650    -2.1010    -0.0880 ca         1 7HY      -0.083300
      6 C34          8.0020    -3.1910     0.5380 ca         1 7HY      -0.107000
      7 C35          9.1310    -3.7870    -0.0500 ca         1 7HY      -0.110500
      8 C36          9.6290    -3.2970    -1.2700 ca         1 7HY      -0.112000
      9 C37          8.9970    -2.2120    -1.9000 ca         1 7HY      -0.110500
     10 C38          7.8680    -1.6160    -1.3110 ca         1 7HY      -0.107000
     11 C02          0.3680    -0.5540    -0.3430 c          1 7HY       0.594100
     12 C20          1.6680     0.0560     0.2650 c3         1 7HY       0.062700
     13 C21          1.8640     1.5360    -0.1630 c3         1 7HY      -0.176400
     14 C22          2.9820     2.3250     0.5510 c          1 7HY       0.598100
     15 N23          3.1950     3.6870     0.2090 n          1 7HY      -0.412800
     16 C26          2.3700     4.4110    -0.7910 c3         1 7HY       0.100000
     17 C27          1.1980     5.1820    -0.1540 c3         1 7HY      -0.112600
     18 C24          4.2670     4.4690     0.8730 c3         1 7HY       0.100000
     19 C25          5.5810     4.4750     0.0730 c3         1 7HY      -0.112600
     20 O28          3.6730     1.7910     1.4080 o          1 7HY      -0.601100
     21 N29          2.8510    -0.7500    -0.1130 ns         1 7HY      -0.487900
     22 N03         -0.8080    -0.0470     0.1710 ns         1 7HY      -0.486900
     23 C04         -2.1680    -0.4570    -0.2420 c3         1 7HY       0.035700
     24 C05         -3.2020     0.6440     0.1360 c          1 7HY       0.591100
     25 O18         -2.9230     1.6160     0.8270 o          1 7HY      -0.614100
     26 C19         -2.5370    -1.8300     0.3720 c3         1 7HY      -0.111100
     27 C11         -9.3430    -0.3840    -1.4980 ca         1 7HY      -0.087000
     28 C10         -8.7250     0.6580    -2.2030 ca         1 7HY      -0.114000
     29 C12         -8.7550    -0.8880    -0.3240 ca         1 7HY      -0.041000
     30 C14         -6.9710    -0.8790     1.3370 ca         1 7HY      -0.103000
     31 C13         -7.5360    -0.3450     0.1550 ca         1 7HY      -0.018000
     32 C15         -7.6080    -1.9270     2.0240 ca         1 7HY      -0.103000
     33 N06         -4.4700     0.4560    -0.3650 ns         1 7HY      -0.498900
     34 C07         -5.6000     1.3450    -0.1080 c3         1 7HY       0.144300
     35 C08         -6.9140     0.7140    -0.5610 ca         1 7HY      -0.104300
     36 C09         -7.5180     1.2020    -1.7380 ca         1 7HY      -0.096000
     37 C16         -8.8150    -2.4560     1.5420 ca         1 7HY      -0.105000
     38 C17         -9.3870    -1.9370     0.3710 ca         1 7HY      -0.101000
     39 H30          4.8780    -3.2110     0.4830 hc         1 7HY       0.061700
     40 H31          4.7590    -2.1490    -0.9590 hc         1 7HY       0.061700
     41 H33          6.0770    -0.4010     0.2660 hc         1 7HY       0.063200
     42 H32          6.2310    -1.4760     1.6420 hc         1 7HY       0.063200
     43 H34          7.6210    -3.5770     1.4810 ha         1 7HY       0.112500
     44 H35          9.6180    -4.6270     0.4380 ha         1 7HY       0.111000
     45 H36         10.5020    -3.7590    -1.7250 ha         1 7HY       0.111000
     46 H37          9.3810    -1.8340    -2.8450 ha         1 7HY       0.111000
     47 H38          7.3830    -0.7780    -1.8080 ha         1 7HY       0.112500
     48 H16          1.5400     0.0260     1.3560 h1         1 7HY       0.086700
     49 H17          2.0310     1.6070    -1.2430 hc         1 7HY       0.077700
     50 H18          0.9400     2.1140    -0.0530 hc         1 7HY       0.077700
     51 H24          3.0100     5.1330    -1.3150 h1         1 7HY       0.052200
     52 H25          1.9870     3.7300    -1.5580 h1         1 7HY       0.052200
     53 H26          0.6240     5.7060    -0.9270 hc         1 7HY       0.042367
     54 H27          0.5220     4.4980     0.3720 hc         1 7HY       0.042367
     55 H28          1.5650     5.9250     0.5630 hc         1 7HY       0.042367
     56 H19          3.9270     5.5050     0.9970 h1         1 7HY       0.052200
     57 H20          4.4550     4.0760     1.8800 h1         1 7HY       0.052200
     58 H21          5.9620     3.4540    -0.0500 hc         1 7HY       0.042367
     59 H22          5.4310     4.9120    -0.9210 hc         1 7HY       0.042367
     60 H23          6.3420     5.0660     0.5970 hc         1 7HY       0.042367
     61 H29          3.1440    -0.7480    -1.0830 hn         1 7HY       0.324500
     62 H7          -0.7290     0.6780     0.8780 hn         1 7HY       0.341500
     63 H8          -2.1880    -0.5460    -1.3360 h1         1 7HY       0.075700
     64 H13         -2.5480    -1.7730     1.4680 hc         1 7HY       0.055033
     65 H14         -3.5280    -2.1580     0.0360 hc         1 7HY       0.055033
     66 H15         -1.8130    -2.5980     0.0760 hc         1 7HY       0.055033
     67 H1          -9.1810     1.0450    -3.1120 ha         1 7HY       0.115000
     68 H3          -6.0370    -0.4970     1.7390 ha         1 7HY       0.127000
     69 H4          -7.1630    -2.3300     2.9310 ha         1 7HY       0.117000
     70 H10         -5.6480     1.5820     0.9630 h1         1 7HY       0.064200
     71 H11         -5.4310     2.2890    -0.6440 h1         1 7HY       0.064200
     72 H12         -7.0500     2.0090    -2.2980 ha         1 7HY       0.110000
     73 H5          -9.3060    -3.2670     2.0750 ha         1 7HY       0.115000
     74 H6         -10.3220    -2.3530     0.0030 ha         1 7HY       0.113000
     75 H9          -4.6280    -0.3680    -0.9340 hn         1 7HY       0.319500
     76 H2         -10.2780    -0.8000    -1.8660 ha         1 7HY       0.115000
     77 O01          0.3700    -1.4140    -1.2170 o          1 7HY      -0.607100
@<TRIPOS>BOND
     1     1     2 2   
     2     1     3 1   
     3     1    21 1   
     4     3     4 1   
     5     3    39 1   
     6     3    40 1   
     7     4     5 1   
     8     4    41 1   
     9     4    42 1   
    10     5     6 ar  
    11     5    10 ar  
    12     6     7 ar  
    13     6    43 1   
    14     7     8 ar  
    15     7    44 1   
    16     8     9 ar  
    17     8    45 1   
    18     9    10 ar  
    19     9    46 1   
    20    10    47 1   
    21    11    12 1   
    22    11    22 1   
    23    11    77 2   
    24    12    13 1   
    25    12    21 1   
    26    12    48 1   
    27    13    14 1   
    28    13    49 1   
    29    13    50 1   
    30    14    15 1   
    31    14    20 2   
    32    15    16 1   
    33    15    18 1   
    34    16    17 1   
    35    16    51 1   
    36    16    52 1   
    37    17    53 1   
    38    17    54 1   
    39    17    55 1   
    40    18    19 1   
    41    18    56 1   
    42    18    57 1   
    43    19    58 1   
    44    19    59 1   
    45    19    60 1   
    46    21    61 1   
    47    22    23 1   
    48    22    62 1   
    49    23    24 1   
    50    23    26 1   
    51    23    63 1   
    52    24    25 2   
    53    24    33 1   
    54    26    64 1   
    55    26    65 1   
    56    26    66 1   
    57    27    28 ar  
    58    27    29 ar  
    59    27    76 1   
    60    28    36 ar  
    61    28    67 1   
    62    29    31 ar  
    63    29    38 ar  
    64    30    31 ar  
    65    30    32 ar  
    66    30    68 1   
    67    31    35 ar  
    68    32    37 ar  
    69    32    69 1   
    70    33    34 1   
    71    33    75 1   
    72    34    35 1   
    73    34    70 1   
    74    34    71 1   
    75    35    36 ar  
    76    36    72 1   
    77    37    38 ar  
    78    37    73 1   
    79    38    74 1   
@<TRIPOS>SUBSTRUCTURE
     1 7HY         1 TEMP              0 ****  ****    0 ROOT
