@<TRIPOS>MOLECULE
7HZ
   75    77     1     0     0
SMALL
No Charge or Current Charge


@<TRIPOS>ATOM
      1 C39         -6.0950   -24.9810    35.0870 cc         1 7HZ      -0.243000
      2 C37         -5.4380   -23.8120    35.2740 cd         1 7HZ       0.196300
      3 C38         -4.9330   -22.8040    34.2840 c3         1 7HZ      -0.137400
      4 O36         -5.2490   -23.5970    36.6110 os         1 7HZ      -0.089700
      5 N35         -5.8250   -24.7020    37.3350 nd         1 7HZ      -0.282300
      6 C34         -6.3130   -25.4970    36.3890 cc         1 7HZ       0.217500
      7 C33         -7.0230   -26.7940    36.6640 c          1 7HZ       0.522600
      8 O40         -7.2230   -27.2390    37.7880 o          1 7HZ      -0.542100
      9 C02         -7.6790   -29.6800    34.3920 c          1 7HZ       0.594100
     10 C22         -8.1900   -28.7660    35.5450 c3         1 7HZ       0.047700
     11 C23         -9.7220   -28.5150    35.4310 c3         1 7HZ      -0.186400
     12 C24        -10.2520   -27.6160    36.5490 c          1 7HZ       0.611100
     13 N25        -10.5260   -26.3140    36.1650 ns         1 7HZ      -0.373400
     14 O26        -10.7300   -25.3300    37.2060 os         1 7HZ      -0.229100
     15 C27        -12.0600   -24.7550    37.2340 c3         1 7HZ       0.156000
     16 C28        -13.0840   -25.8670    37.5720 c3         1 7HZ      -0.099767
     17 C29        -12.0220   -23.6970    38.3590 c3         1 7HZ      -0.099767
     18 C30        -12.3500   -24.0820    35.8660 c3         1 7HZ      -0.099767
     19 O31        -10.4530   -28.0380    37.6810 o          1 7HZ      -0.563100
     20 N32         -7.4480   -27.4820    35.5380 ns         1 7HZ      -0.506900
     21 N03         -8.1450   -30.9790    34.4140 ns         1 7HZ      -0.477900
     22 C04         -7.8520   -31.9950    33.3610 c3         1 7HZ       0.026700
     23 C05         -8.7860   -31.8330    32.1270 c          1 7HZ       0.581100
     24 O18         -8.6840   -32.5210    31.1210 o          1 7HZ      -0.611100
     25 C19         -7.9400   -33.4340    33.9140 c3         1 7HZ       0.154600
     26 C21         -7.0520   -34.8290    35.6840 c3         1 7HZ       0.145900
     27 C11        -12.4200   -26.6150    32.2370 ca         1 7HZ      -0.097000
     28 C10        -11.5450   -26.7570    31.1510 ca         1 7HZ      -0.112000
     29 C12        -12.7730   -27.7350    33.0080 ca         1 7HZ      -0.049000
     30 C14        -12.6270   -30.1190    33.4960 ca         1 7HZ      -0.113000
     31 C13        -12.2520   -29.0150    32.6920 ca         1 7HZ      -0.027000
     32 C15        -13.4950   -29.9470    34.5870 ca         1 7HZ      -0.104000
     33 N06         -9.7520   -30.8600    32.2400 ns         1 7HZ      -0.498900
     34 C07        -10.7270   -30.4930    31.2210 c3         1 7HZ       0.144300
     35 C08        -11.3660   -29.1560    31.5890 ca         1 7HZ      -0.104300
     36 C09        -11.0210   -28.0180    30.8310 ca         1 7HZ      -0.094000
     37 C16        -14.0070   -28.6770    34.8880 ca         1 7HZ      -0.101000
     38 C17        -13.6500   -27.5740    34.0980 ca         1 7HZ      -0.106000
     39 H35         -6.3890   -25.4190    34.1410 ha         1 7HZ       0.156000
     40 H32         -5.4070   -21.8290    34.4450 hc         1 7HZ       0.065367
     41 H33         -3.8490   -22.6750    34.3770 hc         1 7HZ       0.065367
     42 H34         -5.1490   -23.1180    33.2560 hc         1 7HZ       0.065367
     43 H18         -7.9810   -29.2990    36.4830 h1         1 7HZ       0.109700
     44 H19         -9.9180   -28.0450    34.4600 hc         1 7HZ       0.079200
     45 H20        -10.2480   -29.4740    35.4910 hc         1 7HZ       0.079200
     46 H21        -10.2440   -25.9550    35.2590 hn         1 7HZ       0.323500
     47 H22        -12.8150   -26.3730    38.5070 hc         1 7HZ       0.045367
     48 H23        -14.0880   -25.4430    37.6920 hc         1 7HZ       0.045367
     49 H24        -13.1340   -26.6200    36.7790 hc         1 7HZ       0.045367
     50 H25        -11.7730   -24.1590    39.3220 hc         1 7HZ       0.045367
     51 H26        -11.2710   -22.9270    38.1450 hc         1 7HZ       0.045367
     52 H27        -12.9960   -23.2020    38.4620 hc         1 7HZ       0.045367
     53 H28        -11.5500   -23.3810    35.5990 hc         1 7HZ       0.045367
     54 H29        -12.4420   -24.8230    35.0630 hc         1 7HZ       0.045367
     55 H30        -13.2910   -23.5220    35.9070 hc         1 7HZ       0.045367
     56 H31         -7.1800   -27.1010    34.6360 hn         1 7HZ       0.340500
     57 H2          -6.8300   -31.8320    32.9960 h1         1 7HZ       0.101700
     58 H13         -7.6360   -34.1460    33.1340 h1         1 7HZ       0.049200
     59 H14         -8.9790   -33.6550    34.1940 h1         1 7HZ       0.049200
     60 H15         -6.3720   -34.8270    36.5460 h1         1 7HZ       0.035367
     61 H16         -8.0530   -35.1060    36.0400 h1         1 7HZ       0.035367
     62 H17         -6.7080   -35.5970    34.9800 h1         1 7HZ       0.035367
     63 H1          -8.6780   -31.2670    35.2280 hn         1 7HZ       0.335500
     64 H8         -12.8200   -25.6330    32.4780 ha         1 7HZ       0.114000
     65 H7         -11.2700   -25.8880    30.5570 ha         1 7HZ       0.117000
     66 H9         -12.2590   -31.1200    33.2880 ha         1 7HZ       0.135000
     67 H10        -13.7750   -30.8030    35.1980 ha         1 7HZ       0.120000
     68 H3          -9.7550   -30.3340    33.1030 hn         1 7HZ       0.341500
     69 H4         -11.4920   -31.2760    31.1420 h1         1 7HZ       0.069200
     70 H5         -10.2200   -30.4180    30.2490 h1         1 7HZ       0.069200
     71 H6         -10.3350   -28.1090    29.9910 ha         1 7HZ       0.114000
     72 H11        -14.6840   -28.5480    35.7300 ha         1 7HZ       0.122000
     73 H12        -14.0560   -26.5940    34.3340 ha         1 7HZ       0.116000
     74 O01         -6.9530   -29.2780    33.4910 o          1 7HZ      -0.638100
     75 O20         -7.0720   -33.5330    35.0600 os         1 7HZ      -0.464000
@<TRIPOS>BOND
     1     1     2 2   
     2     1     6 1   
     3     1    39 1   
     4     2     3 1   
     5     2     4 1   
     6     3    40 1   
     7     3    41 1   
     8     3    42 1   
     9     4     5 1   
    10     5     6 2   
    11     6     7 1   
    12     7     8 2   
    13     7    20 1   
    14     9    10 1   
    15     9    21 1   
    16     9    74 2   
    17    10    11 1   
    18    10    20 1   
    19    10    43 1   
    20    11    12 1   
    21    11    44 1   
    22    11    45 1   
    23    12    13 1   
    24    12    19 2   
    25    13    14 1   
    26    13    46 1   
    27    14    15 1   
    28    15    16 1   
    29    15    17 1   
    30    15    18 1   
    31    16    47 1   
    32    16    48 1   
    33    16    49 1   
    34    17    50 1   
    35    17    51 1   
    36    17    52 1   
    37    18    53 1   
    38    18    54 1   
    39    18    55 1   
    40    20    56 1   
    41    21    22 1   
    42    21    63 1   
    43    22    23 1   
    44    22    25 1   
    45    22    57 1   
    46    23    24 2   
    47    23    33 1   
    48    25    58 1   
    49    25    59 1   
    50    25    75 1   
    51    26    60 1   
    52    26    61 1   
    53    26    62 1   
    54    26    75 1   
    55    27    28 ar  
    56    27    29 ar  
    57    27    64 1   
    58    28    36 ar  
    59    28    65 1   
    60    29    31 ar  
    61    29    38 ar  
    62    30    31 ar  
    63    30    32 ar  
    64    30    66 1   
    65    31    35 ar  
    66    32    37 ar  
    67    32    67 1   
    68    33    34 1   
    69    33    68 1   
    70    34    35 1   
    71    34    69 1   
    72    34    70 1   
    73    35    36 ar  
    74    36    71 1   
    75    37    38 ar  
    76    37    72 1   
    77    38    73 1   
@<TRIPOS>SUBSTRUCTURE
     1 7HZ         1 TEMP              0 ****  ****    0 ROOT
