@<TRIPOS>MOLECULE
7HZ
   75    77     1     0     0
SMALL
abcg2


@<TRIPOS>ATOM
      1 C39         -5.7870   -25.2380    34.8980 cc         1 7HZ      -0.243000
      2 C37         -5.2220   -24.0230    35.1190 cd         1 7HZ       0.196300
      3 C38         -4.3660   -23.1290    34.3070 c3         1 7HZ      -0.137400
      4 O36         -5.5510   -23.6070    36.3630 os         1 7HZ      -0.089700
      5 N35         -6.3440   -24.5640    36.9840 nd         1 7HZ      -0.282300
      6 C34         -6.4790   -25.5280    36.1050 cc         1 7HZ       0.217500
      7 C33         -7.3010   -26.7240    36.4730 c          1 7HZ       0.522600
      8 O40         -7.5920   -26.9780    37.6370 o          1 7HZ      -0.542100
      9 C02         -8.0890   -29.5970    34.3850 c          1 7HZ       0.594100
     10 C22         -8.4980   -28.6600    35.5250 c3         1 7HZ       0.047700
     11 C23        -10.0050   -28.3470    35.3760 c3         1 7HZ      -0.186400
     12 C24        -10.5350   -27.5940    36.5790 c          1 7HZ       0.611100
     13 N25        -10.6880   -26.2710    36.3530 ns         1 7HZ      -0.373400
     14 O26        -10.9040   -25.4030    37.4030 os         1 7HZ      -0.229100
     15 C27        -12.2480   -24.7870    37.3870 c3         1 7HZ       0.156000
     16 C28        -13.3050   -25.8580    37.6160 c3         1 7HZ      -0.099767
     17 C29        -12.1730   -23.8150    38.5540 c3         1 7HZ      -0.099767
     18 C30        -12.4600   -24.0560    36.0670 c3         1 7HZ      -0.099767
     19 O31        -10.8020   -28.1520    37.6360 o          1 7HZ      -0.563100
     20 N32         -7.6890   -27.4670    35.4210 ns         1 7HZ      -0.506900
     21 N03         -8.4160   -30.8840    34.5470 ns         1 7HZ      -0.477900
     22 C04         -8.2150   -31.8940    33.5100 c3         1 7HZ       0.026700
     23 C05         -9.4020   -31.8770    32.5260 c          1 7HZ       0.581100
     24 O18        -10.2290   -32.7850    32.4810 o          1 7HZ      -0.611100
     25 C19         -8.0300   -33.2630    34.1330 c3         1 7HZ       0.154600
     26 C21         -6.6000   -34.4790    35.5540 c3         1 7HZ       0.145900
     27 C11        -12.2390   -26.6580    32.3410 ca         1 7HZ      -0.097000
     28 C10        -11.4430   -26.6980    31.2270 ca         1 7HZ      -0.112000
     29 C12        -12.5620   -27.8490    33.0350 ca         1 7HZ      -0.049000
     30 C14        -12.3750   -30.2700    33.3010 ca         1 7HZ      -0.113000
     31 C13        -12.0470   -29.0990    32.5720 ca         1 7HZ      -0.027000
     32 C15        -13.1560   -30.2060    34.4280 ca         1 7HZ      -0.104000
     33 N06         -9.4480   -30.7680    31.7700 ns         1 7HZ      -0.498900
     34 C07        -10.5740   -30.3900    30.9220 c3         1 7HZ       0.144300
     35 C08        -11.2130   -29.1120    31.4130 ca         1 7HZ      -0.104300
     36 C09        -10.9330   -27.9310    30.7680 ca         1 7HZ      -0.094000
     37 C16        -13.6570   -28.9700    34.8860 ca         1 7HZ      -0.101000
     38 C17        -13.3700   -27.8200    34.1980 ca         1 7HZ      -0.106000
     39 H35         -5.7030   -25.8400    34.0100 ha         1 7HZ       0.156000
     40 H32         -4.8490   -22.1600    34.1670 hc         1 7HZ       0.065367
     41 H33         -3.4080   -22.9590    34.8030 hc         1 7HZ       0.065367
     42 H34         -4.1850   -23.5780    33.3330 hc         1 7HZ       0.065367
     43 H18         -8.3150   -29.1330    36.4890 h1         1 7HZ       0.109700
     44 H19        -10.1510   -27.7880    34.4520 hc         1 7HZ       0.079200
     45 H20        -10.5660   -29.2760    35.3050 hc         1 7HZ       0.079200
     46 H21        -10.2940   -25.8390    35.5290 hn         1 7HZ       0.323500
     47 H22        -13.1500   -26.3530    38.5750 hc         1 7HZ       0.045367
     48 H23        -14.2950   -25.4010    37.6140 hc         1 7HZ       0.045367
     49 H24        -13.2750   -26.6060    36.8260 hc         1 7HZ       0.045367
     50 H25        -11.9560   -24.3470    39.4820 hc         1 7HZ       0.045367
     51 H26        -11.3980   -23.0670    38.3860 hc         1 7HZ       0.045367
     52 H27        -13.1300   -23.3040    38.6660 hc         1 7HZ       0.045367
     53 H28        -11.6520   -23.3440    35.8890 hc         1 7HZ       0.045367
     54 H29        -12.5090   -24.7530    35.2300 hc         1 7HZ       0.045367
     55 H30        -13.4020   -23.5080    36.1030 hc         1 7HZ       0.045367
     56 H31         -7.4150   -27.2100    34.4840 hn         1 7HZ       0.340500
     57 H2          -7.3080   -31.6250    32.9670 h1         1 7HZ       0.101700
     58 H13         -7.9900   -34.0160    33.3390 h1         1 7HZ       0.049200
     59 H14         -8.8810   -33.5050    34.7820 h1         1 7HZ       0.049200
     60 H15         -5.6610   -34.3800    36.0960 h1         1 7HZ       0.035367
     61 H16         -7.4090   -34.6910    36.2630 h1         1 7HZ       0.035367
     62 H17         -6.5250   -35.3120    34.8450 h1         1 7HZ       0.035367
     63 H1          -8.8860   -31.1700    35.3940 hn         1 7HZ       0.335500
     64 H8         -12.6280   -25.7180    32.7120 ha         1 7HZ       0.114000
     65 H7         -11.1960   -25.7880    30.6970 ha         1 7HZ       0.117000
     66 H9         -11.9990   -31.2290    32.9740 ha         1 7HZ       0.135000
     67 H10        -13.3870   -31.1130    34.9740 ha         1 7HZ       0.120000
     68 H3          -8.7340   -30.0680    31.9330 hn         1 7HZ       0.341500
     69 H4         -11.2730   -31.2240    30.9160 h1         1 7HZ       0.069200
     70 H5         -10.2180   -30.2450    29.9020 h1         1 7HZ       0.069200
     71 H6         -10.2970   -27.9470    29.8910 ha         1 7HZ       0.114000
     72 H11        -14.2640   -28.9320    35.7810 ha         1 7HZ       0.122000
     73 H12        -13.7480   -26.8650    34.5380 ha         1 7HZ       0.116000
     74 O01         -7.5480   -29.1540    33.3700 o          1 7HZ      -0.638100
     75 O20         -6.8270   -33.2520    34.8760 os         1 7HZ      -0.464000
@<TRIPOS>BOND
     1     1     2 2   
     2     1     6 1   
     3     1    39 1   
     4     2     3 1   
     5     2     4 1   
     6     3    40 1   
     7     3    41 1   
     8     3    42 1   
     9     4     5 1   
    10     5     6 2   
    11     6     7 1   
    12     7     8 2   
    13     7    20 1   
    14     9    10 1   
    15     9    21 1   
    16     9    74 2   
    17    10    11 1   
    18    10    20 1   
    19    10    43 1   
    20    11    12 1   
    21    11    44 1   
    22    11    45 1   
    23    12    13 1   
    24    12    19 2   
    25    13    14 1   
    26    13    46 1   
    27    14    15 1   
    28    15    16 1   
    29    15    17 1   
    30    15    18 1   
    31    16    47 1   
    32    16    48 1   
    33    16    49 1   
    34    17    50 1   
    35    17    51 1   
    36    17    52 1   
    37    18    53 1   
    38    18    54 1   
    39    18    55 1   
    40    20    56 1   
    41    21    22 1   
    42    21    63 1   
    43    22    23 1   
    44    22    25 1   
    45    22    57 1   
    46    23    24 2   
    47    23    33 1   
    48    25    58 1   
    49    25    59 1   
    50    25    75 1   
    51    26    60 1   
    52    26    61 1   
    53    26    62 1   
    54    26    75 1   
    55    27    28 ar  
    56    27    29 ar  
    57    27    64 1   
    58    28    36 ar  
    59    28    65 1   
    60    29    31 ar  
    61    29    38 ar  
    62    30    31 ar  
    63    30    32 ar  
    64    30    66 1   
    65    31    35 ar  
    66    32    37 ar  
    67    32    67 1   
    68    33    34 1   
    69    33    68 1   
    70    34    35 1   
    71    34    69 1   
    72    34    70 1   
    73    35    36 ar  
    74    36    71 1   
    75    37    38 ar  
    76    37    72 1   
    77    38    73 1   
@<TRIPOS>SUBSTRUCTURE
     1 7HZ         1 TEMP              0 ****  ****    0 ROOT
