@<TRIPOS>MOLECULE
7I0
   51    54     1     0     0
SMALL
abcg2


@<TRIPOS>ATOM
      1 C4          -6.7340    -8.2580   -18.9300 ca         1 7I0       0.176000
      2 C5          -6.7530    -9.4280   -19.6640 ca         1 7I0      -0.156000
      3 C6          -5.6110    -9.7780   -20.3640 ca         1 7I0      -0.079000
      4 C8          -3.4240    -9.4270   -22.5840 c3         1 7I0      -0.029200
      5 C10         -2.1310    -9.8160   -20.4520 ce         1 7I0       0.049600
      6 C15         -2.9790   -10.5860   -18.2050 ca         1 7I0      -0.088500
      7 C17         -1.8410    -9.9780   -16.1560 ca         1 7I0       0.016200
      8 C20         -1.7050    -9.9610   -14.6990 ce         1 7I0      -0.246200
      9 C21         -2.5860   -10.4070   -13.8000 cf         1 7I0      -0.208200
     10 C22         -2.3590   -10.3290   -12.3040 c          1 7I0       0.696200
     11 C24         -0.8790   -10.1600   -21.1680 ca         1 7I0      -0.059800
     12 C26          0.8320   -11.8670   -21.5820 ca         1 7I0      -0.094000
     13 C28          0.9680    -9.6300   -22.5920 ca         1 7I0      -0.142000
     14 O24         -1.2880    -9.8310   -11.9040 o          1 7I0      -0.721000
     15 O23         -3.2890   -10.7780   -11.6030 o          1 7I0      -0.721000
     16 C18         -0.8840    -9.3190   -16.9320 ca         1 7I0      -0.129500
     17 C19         -0.9780    -9.2820   -18.3120 ca         1 7I0      -0.088500
     18 C16         -2.8840   -10.6260   -16.8260 ca         1 7I0      -0.129500
     19 C14         -2.0410    -9.8950   -18.9750 ca         1 7I0      -0.109800
     20 C9          -3.5830    -8.0190   -23.1540 c3         1 7I0      -0.084100
     21 C1          -4.4520    -9.0020   -20.3340 ca         1 7I0      -0.038800
     22 C2          -4.5000    -7.8160   -19.6050 ca         1 7I0       0.164000
     23 CL12        -3.1390    -6.7490   -19.5830 cl         1 7I0      -0.189000
     24 C3          -5.6290    -7.4330   -18.8920 ca         1 7I0      -0.145000
     25 F11         -7.8260    -7.9050   -18.2380 f          1 7I0      -0.178000
     26 C29         -0.2340    -9.2460   -21.9600 ca         1 7I0      -0.053000
     27 C32          1.8790    -9.0090   -23.4420 cc         1 7I0      -0.206100
     28 N31          2.8180    -9.9270   -23.6880 na         1 7I0       0.008500
     29 N30          2.6380   -11.0970   -23.0940 nc         1 7I0      -0.292400
     30 C27          1.5020   -10.9370   -22.4120 ca         1 7I0      -0.065000
     31 C25         -0.3230   -11.4650   -20.9780 ca         1 7I0      -0.073000
     32 H1          -7.6350   -10.0540   -19.6840 ha         1 7I0       0.129000
     33 H2          -5.6070   -10.6980   -20.9330 ha         1 7I0       0.117000
     34 H3          -4.3200   -10.0050   -22.8350 hc         1 7I0       0.044700
     35 H4          -2.5890    -9.9310   -23.0690 hc         1 7I0       0.044700
     36 H5          -3.7870   -11.1160   -18.6920 ha         1 7I0       0.100000
     37 H6          -0.7850    -9.5170   -14.3280 ha         1 7I0       0.191000
     38 H7          -3.5260   -10.8450   -14.1220 ha         1 7I0       0.143000
     39 H8           1.2260   -12.8640   -21.4330 ha         1 7I0       0.125000
     40 H10         -0.0560    -8.8210   -16.4410 ha         1 7I0       0.116000
     41 H11         -0.2220    -8.7560   -18.8830 ha         1 7I0       0.100000
     42 H12         -3.6300   -11.1780   -16.2680 ha         1 7I0       0.116000
     43 H13         -3.7430    -8.0600   -24.2310 hc         1 7I0       0.031033
     44 H14         -4.4360    -7.5000   -22.7150 hc         1 7I0       0.031033
     45 H15         -2.6960    -7.4120   -22.9710 hc         1 7I0       0.031033
     46 H16         -5.6480    -6.5110   -18.3270 ha         1 7I0       0.146000
     47 H17         -0.6350    -8.2490   -22.0900 ha         1 7I0       0.120000
     48 H18          1.9180    -8.0210   -23.8680 h4         1 7I0       0.223000
     49 H19          3.6280    -9.7960   -24.2760 hn         1 7I0       0.364000
     50 H20         -0.8510   -12.1570   -20.3340 ha         1 7I0       0.124000
     51 C7          -3.2530    -9.4420   -21.0900 cf         1 7I0      -0.080400
@<TRIPOS>BOND
     1     1     2 ar  
     2     1    24 ar  
     3     1    25 1   
     4     2     3 ar  
     5     2    32 1   
     6     3    21 ar  
     7     3    33 1   
     8     4    20 1   
     9     4    34 1   
    10     4    35 1   
    11     4    51 1   
    12     5    11 1   
    13     5    19 1   
    14     5    51 2   
    15     6    18 ar  
    16     6    19 ar  
    17     6    36 1   
    18     7     8 1   
    19     7    16 ar  
    20     7    18 ar  
    21     8     9 2   
    22     8    37 1   
    23     9    10 1   
    24     9    38 1   
    25    10    14 1   
    26    10    15 1   
    27    11    26 ar  
    28    11    31 ar  
    29    12    30 ar  
    30    12    31 ar  
    31    12    39 1   
    32    13    26 ar  
    33    13    27 2   
    34    13    30 ar  
    35    16    17 ar  
    36    16    40 1   
    37    17    19 ar  
    38    17    41 1   
    39    18    42 1   
    40    20    43 1   
    41    20    44 1   
    42    20    45 1   
    43    21    22 ar  
    44    21    51 1   
    45    22    23 1   
    46    22    24 ar  
    47    24    46 1   
    48    26    47 1   
    49    27    28 1   
    50    27    48 1   
    51    28    29 1   
    52    28    49 1   
    53    29    30 2   
    54    31    50 1   
@<TRIPOS>SUBSTRUCTURE
     1 7I0         1 TEMP              0 ****  ****    0 ROOT
