@<TRIPOS>MOLECULE
7I0
   51    54     1     0     0
SMALL
No Charge or Current Charge


@<TRIPOS>ATOM
      1 C4          -6.9030    -8.1630   -19.0920 ca         1 7I0       0.176000
      2 C5          -6.8810    -9.3720   -19.8030 ca         1 7I0      -0.156000
      3 C6          -5.7040    -9.7790   -20.4540 ca         1 7I0      -0.079000
      4 C8          -3.4510    -9.4440   -22.5910 c3         1 7I0      -0.029200
      5 C10         -2.1490    -9.7870   -20.4210 ce         1 7I0       0.049600
      6 C15         -2.9900   -10.5120   -18.1520 ca         1 7I0      -0.088500
      7 C17         -1.7830    -9.9400   -16.1060 ca         1 7I0       0.016200
      8 C20         -1.6290    -9.9710   -14.6220 ce         1 7I0      -0.246200
      9 C21         -2.4460   -10.5330   -13.6750 cf         1 7I0      -0.208200
     10 C22         -2.2070   -10.5110   -12.2000 c          1 7I0       0.696200
     11 C24         -0.8870   -10.1860   -21.1100 ca         1 7I0      -0.059800
     12 C26          0.8600   -11.8650   -21.5320 ca         1 7I0      -0.094000
     13 C28          0.9730    -9.7000   -22.5630 ca         1 7I0      -0.142000
     14 O24         -1.2080    -9.9550   -11.7680 o          1 7I0      -0.721000
     15 O23         -3.0330   -11.0590   -11.4870 o          1 7I0      -0.721000
     16 C18         -0.8150    -9.2810   -16.8860 ca         1 7I0      -0.129500
     17 C19         -0.9330    -9.2340   -18.2860 ca         1 7I0      -0.088500
     18 C16         -2.8710   -10.5580   -16.7530 ca         1 7I0      -0.129500
     19 C14         -2.0260    -9.8430   -18.9310 ca         1 7I0      -0.109800
     20 C9          -3.5810    -8.0350   -23.2040 c3         1 7I0      -0.084100
     21 C1          -4.5430    -8.9800   -20.3950 ca         1 7I0      -0.038800
     22 C2          -4.5820    -7.7600   -19.6790 ca         1 7I0       0.164000
     23 Cl12        -3.1790    -6.6910   -19.6140 cl         1 7I0      -0.189000
     24 C3          -5.7600    -7.3560   -19.0300 ca         1 7I0      -0.145000
     25 F11         -8.0360    -7.7730   -18.4670 f          1 7I0      -0.178000
     26 C29         -0.2130    -9.2750   -21.9530 ca         1 7I0      -0.053000
     27 C32          1.8540    -9.0230   -23.4470 cc         1 7I0      -0.206100
     28 N31          2.8740    -9.9270   -23.7340 na         1 7I0       0.008500
     29 N30          2.6970   -11.1540   -23.0790 nc         1 7I0      -0.292400
     30 C27          1.5090   -10.9490   -22.3740 ca         1 7I0      -0.065000
     31 C25         -0.3400   -11.4760   -20.8980 ca         1 7I0      -0.073000
     32 H1          -7.7720    -9.9920   -19.8450 ha         1 7I0       0.129000
     33 H2          -5.6890   -10.7230   -20.9940 ha         1 7I0       0.117000
     34 H3          -4.3340   -10.0240   -22.8820 hc         1 7I0       0.044700
     35 H4          -2.6100    -9.9560   -23.0720 hc         1 7I0       0.044700
     36 H5          -3.8310   -11.0070   -18.6310 ha         1 7I0       0.100000
     37 H6          -0.7290    -9.4650   -14.2670 ha         1 7I0       0.191000
     38 H7          -3.3530   -11.0450   -13.9840 ha         1 7I0       0.143000
     39 H8           1.2740   -12.8570   -21.3690 ha         1 7I0       0.125000
     40 H10          0.0350    -8.7980   -16.4090 ha         1 7I0       0.116000
     41 H11         -0.1760    -8.7130   -18.8690 ha         1 7I0       0.100000
     42 H12         -3.6320   -11.0810   -16.1810 ha         1 7I0       0.116000
     43 H13         -3.6440    -8.0980   -24.2960 hc         1 7I0       0.031033
     44 H14         -4.4840    -7.5320   -22.8380 hc         1 7I0       0.031033
     45 H15         -2.7130    -7.4170   -22.9440 hc         1 7I0       0.031033
     46 H16         -5.7880    -6.4170   -18.4860 ha         1 7I0       0.146000
     47 H17         -0.5980    -8.2720   -22.1190 ha         1 7I0       0.120000
     48 H18          1.8460    -8.0260   -23.8760 h4         1 7I0       0.223000
     49 H19          3.6760    -9.7700   -24.3400 hn         1 7I0       0.364000
     50 H20         -0.8510   -12.1770   -20.2420 ha         1 7I0       0.124000
     51 C7          -3.3070    -9.4320   -21.0680 cf         1 7I0      -0.080400
@<TRIPOS>BOND
     1     1     2 ar  
     2     1    24 ar  
     3     1    25 1   
     4     2     3 ar  
     5     2    32 1   
     6     3    21 ar  
     7     3    33 1   
     8     4    20 1   
     9     4    34 1   
    10     4    35 1   
    11     4    51 1   
    12     5    11 1   
    13     5    19 1   
    14     5    51 2   
    15     6    18 ar  
    16     6    19 ar  
    17     6    36 1   
    18     7     8 1   
    19     7    16 ar  
    20     7    18 ar  
    21     8     9 2   
    22     8    37 1   
    23     9    10 1   
    24     9    38 1   
    25    10    14 1   
    26    10    15 1   
    27    11    26 ar  
    28    11    31 ar  
    29    12    30 ar  
    30    12    31 ar  
    31    12    39 1   
    32    13    26 ar  
    33    13    27 2   
    34    13    30 ar  
    35    16    17 ar  
    36    16    40 1   
    37    17    19 ar  
    38    17    41 1   
    39    18    42 1   
    40    20    43 1   
    41    20    44 1   
    42    20    45 1   
    43    21    22 ar  
    44    21    51 1   
    45    22    23 1   
    46    22    24 ar  
    47    24    46 1   
    48    26    47 1   
    49    27    28 1   
    50    27    48 1   
    51    28    29 1   
    52    28    49 1   
    53    29    30 2   
    54    31    50 1   
@<TRIPOS>SUBSTRUCTURE
     1 7I0         1 TEMP              0 ****  ****    0 ROOT
