@<TRIPOS>MOLECULE
7I1
   57    61     1     0     0
SMALL
No Charge or Current Charge


@<TRIPOS>ATOM
      1 O2           1.0450    -2.9010     0.2760 o          1 7I1      -0.607100
      2 C14          1.1570    -1.7250    -0.0430 c          1 7I1       0.650300
      3 N1           2.3720    -1.1840    -0.3880 ns         1 7I1      -0.494900
      4 C15          3.6330    -1.9190    -0.4090 c3         1 7I1       0.144300
      5 C16          4.8090    -0.9940    -0.7110 ca         1 7I1      -0.099300
      6 C25          5.3360    -0.0930     0.2530 ca         1 7I1      -0.017000
      7 C24          4.7980     0.0040     1.5590 ca         1 7I1      -0.097000
      8 C23          5.3390     0.9050     2.4910 ca         1 7I1      -0.106000
      9 C22          6.4240     1.7210     2.1360 ca         1 7I1      -0.106000
     10 C21          6.9680     1.6390     0.8460 ca         1 7I1      -0.101000
     11 C20          6.4310     0.7390    -0.0950 ca         1 7I1      -0.041000
     12 C19          6.9880     0.6740    -1.3850 ca         1 7I1      -0.089000
     13 C18          6.4630    -0.2140    -2.3340 ca         1 7I1      -0.114000
     14 C17          5.3810    -1.0410    -1.9990 ca         1 7I1      -0.098000
     15 C2           0.0520    -0.7290    -0.0970 cc         1 7I1      -0.085100
     16 O            0.2850     0.6060    -0.4440 os         1 7I1      -0.180200
     17 C3          -0.9480     1.2070    -0.3510 ca         1 7I1       0.119100
     18 C13         -1.9420     0.3420     0.0240 ca         1 7I1      -0.175800
     19 C1          -1.2970    -0.9380     0.1790 cd         1 7I1      -0.005400
     20 C           -1.9710    -2.2380     0.5610 c3         1 7I1      -0.034900
     21 C7          -3.2720     0.7690     0.1910 ca         1 7I1       0.218100
     22 C6          -3.5510     2.1390    -0.0470 ca         1 7I1      -0.242000
     23 C5          -2.5240     3.0260    -0.4430 ca         1 7I1      -0.038000
     24 C4          -1.2040     2.5590    -0.5970 ca         1 7I1      -0.157000
     25 O1          -4.2300    -0.1370     0.6080 os         1 7I1      -0.341100
     26 C8          -5.6420     0.1480     0.5430 c6         1 7I1       0.176300
     27 C12         -6.4110    -0.9420     1.3230 c6         1 7I1      -0.131900
     28 C11         -7.9370    -0.7290     1.2120 c6         1 7I1       0.150300
     29 N           -8.3600    -0.6890    -0.2080 n7         1 7I1      -0.845400
     30 C10         -7.6700     0.3690    -0.9850 c6         1 7I1       0.150300
     31 C9          -6.1380     0.1840    -0.9270 c6         1 7I1      -0.131900
     32 H1           2.3740    -0.2030    -0.6360 hn         1 7I1       0.330500
     33 H151         3.7840    -2.4190     0.5570 h1         1 7I1       0.062700
     34 H152         3.5670    -2.7040    -1.1750 h1         1 7I1       0.062700
     35 H17          4.9840    -1.7230    -2.7480 ha         1 7I1       0.111000
     36 H24          3.9570    -0.6100     1.8680 ha         1 7I1       0.128000
     37 H23          4.9160     0.9700     3.4910 ha         1 7I1       0.115000
     38 H22          6.8410     2.4180     2.8600 ha         1 7I1       0.113000
     39 H21          7.8080     2.2760     0.5770 ha         1 7I1       0.112000
     40 H19          7.8280     1.3120    -1.6530 ha         1 7I1       0.114000
     41 H18          6.8950    -0.2610    -3.3310 ha         1 7I1       0.114000
     42 H4          -0.4030     3.2300    -0.8950 ha         1 7I1       0.135000
     43 HC1         -1.9810    -2.3680     1.6490 hc         1 7I1       0.058033
     44 HC2         -3.0050    -2.2770     0.2060 hc         1 7I1       0.058033
     45 HC3         -1.4690    -3.1050     0.1190 hc         1 7I1       0.058033
     46 H6          -4.5520     2.5410     0.0780 ha         1 7I1       0.120000
     47 H5          -2.7500     4.0750    -0.6230 ha         1 7I1       0.115000
     48 H8          -5.8410     1.1120     1.0320 h1         1 7I1       0.048700
     49 H121        -6.1460    -1.9360     0.9380 hc         1 7I1       0.059450
     50 H122        -6.1130    -0.9230     2.3800 hc         1 7I1       0.059450
     51 H91C        -5.6540     0.9990    -1.4790 hc         1 7I1       0.059450
     52 H92C        -5.8570    -0.7480    -1.4370 hc         1 7I1       0.059450
     53 H111        -8.4640    -1.5410     1.7350 h1         1 7I1       0.055950
     54 H112        -8.2140     0.2160     1.7060 h1         1 7I1       0.055950
     55 H           -8.1420    -1.5990    -0.6360 hn         1 7I1       0.408000
     56 H101        -8.0070     0.3400    -2.0320 h1         1 7I1       0.055950
     57 H102        -7.9370     1.3570    -0.5800 h1         1 7I1       0.055950
@<TRIPOS>BOND
     1     1     2 2   
     2     2     3 1   
     3     2    15 1   
     4     3     4 1   
     5     3    32 1   
     6     4     5 1   
     7     4    33 1   
     8     4    34 1   
     9     5     6 ar  
    10     5    14 ar  
    11     6     7 ar  
    12     6    11 ar  
    13     7     8 ar  
    14     7    36 1   
    15     8     9 ar  
    16     8    37 1   
    17     9    10 ar  
    18     9    38 1   
    19    10    11 ar  
    20    10    39 1   
    21    11    12 ar  
    22    12    13 ar  
    23    12    40 1   
    24    13    14 ar  
    25    13    41 1   
    26    14    35 1   
    27    15    16 1   
    28    15    19 2   
    29    16    17 1   
    30    17    18 ar  
    31    17    24 ar  
    32    18    19 1   
    33    18    21 ar  
    34    19    20 1   
    35    20    43 1   
    36    20    44 1   
    37    20    45 1   
    38    21    22 ar  
    39    21    25 1   
    40    22    23 ar  
    41    22    46 1   
    42    23    24 ar  
    43    23    47 1   
    44    24    42 1   
    45    25    26 1   
    46    26    27 1   
    47    26    31 1   
    48    26    48 1   
    49    27    28 1   
    50    27    49 1   
    51    27    50 1   
    52    28    29 1   
    53    28    53 1   
    54    28    54 1   
    55    29    30 1   
    56    29    55 1   
    57    30    31 1   
    58    30    56 1   
    59    30    57 1   
    60    31    51 1   
    61    31    52 1   
@<TRIPOS>SUBSTRUCTURE
     1 7I1         1 TEMP              0 ****  ****    0 ROOT
