@<TRIPOS>MOLECULE
7I1
   57    61     1     0     0
SMALL
abcg2


@<TRIPOS>ATOM
      1 O2           1.3320    -2.5350     0.2310 o          1 7I1      -0.607100
      2 C14          1.3190    -1.5040    -0.4320 c          1 7I1       0.650300
      3 N1           2.3820    -1.0490    -1.1190 ns         1 7I1      -0.494900
      4 C15          3.6530    -1.7400    -1.1860 c3         1 7I1       0.144300
      5 C16          4.8020    -0.7920    -0.9670 ca         1 7I1      -0.099300
      6 C25          5.0750    -0.2470     0.3220 ca         1 7I1      -0.017000
      7 C24          4.3260    -0.5880     1.4740 ca         1 7I1      -0.097000
      8 C23          4.6220    -0.0420     2.6950 ca         1 7I1      -0.106000
      9 C22          5.6810     0.8770     2.8310 ca         1 7I1      -0.106000
     10 C21          6.4290     1.2210     1.7400 ca         1 7I1      -0.101000
     11 C20          6.1500     0.6720     0.4660 ca         1 7I1      -0.041000
     12 C19          6.9280     1.0200    -0.6640 ca         1 7I1      -0.089000
     13 C18          6.6540     0.4780    -1.8860 ca         1 7I1      -0.114000
     14 C17          5.5850    -0.4290    -2.0320 ca         1 7I1      -0.098000
     15 C2           0.1070    -0.6690    -0.5180 cc         1 7I1      -0.085100
     16 O            0.2150     0.5060    -1.2120 os         1 7I1      -0.180200
     17 C3          -0.9900     1.0990    -1.1820 ca         1 7I1       0.119100
     18 C13         -1.8850     0.3090    -0.4670 ca         1 7I1      -0.175800
     19 C1          -1.1510    -0.8530    -0.0350 cd         1 7I1      -0.005400
     20 C           -1.7000    -1.9900     0.7550 c3         1 7I1      -0.034900
     21 C7          -3.2140     0.7460    -0.3110 ca         1 7I1       0.218100
     22 C6          -3.5670     1.9550    -0.8960 ca         1 7I1      -0.242000
     23 C5          -2.6260     2.7140    -1.6060 ca         1 7I1      -0.038000
     24 C4          -1.3150     2.3120    -1.7700 ca         1 7I1      -0.157000
     25 O1          -4.0190    -0.0460     0.4060 os         1 7I1      -0.341100
     26 C8          -5.4030     0.2660     0.5550 c6         1 7I1       0.176300
     27 C12         -5.9150    -0.5070     1.7570 c6         1 7I1      -0.131900
     28 C11         -7.4170    -0.2650     1.9270 c6         1 7I1       0.150300
     29 N           -8.2040    -0.5600     0.7420 n7         1 7I1      -0.845400
     30 C10         -7.6940     0.1340    -0.4270 c6         1 7I1       0.150300
     31 C9          -6.2040    -0.1000    -0.6880 c6         1 7I1      -0.131900
     32 H1           2.2920    -0.2160    -1.6780 hn         1 7I1       0.330500
     33 H151         3.6500    -2.5410    -0.4470 h1         1 7I1       0.062700
     34 H152         3.7610    -2.2170    -2.1630 h1         1 7I1       0.062700
     35 H17          5.3770    -0.8440    -3.0110 ha         1 7I1       0.111000
     36 H24          3.5140    -1.2990     1.4060 ha         1 7I1       0.128000
     37 H23          4.0370    -0.3170     3.5620 ha         1 7I1       0.115000
     38 H22          5.9020     1.3030     3.8010 ha         1 7I1       0.113000
     39 H21          7.2500     1.9210     1.8360 ha         1 7I1       0.112000
     40 H19          7.7440     1.7220    -0.5430 ha         1 7I1       0.114000
     41 H18          7.2520     0.7410    -2.7490 ha         1 7I1       0.114000
     42 H4          -0.5950     2.9000    -2.3220 ha         1 7I1       0.135000
     43 HC1         -2.0480    -1.6470     1.7300 hc         1 7I1       0.058033
     44 HC2         -2.5610    -2.4250     0.2480 hc         1 7I1       0.058033
     45 HC3         -0.9590    -2.7660     0.9070 hc         1 7I1       0.058033
     46 H6          -4.5730     2.3410    -0.8150 ha         1 7I1       0.120000
     47 H5          -2.9490     3.6500    -2.0410 ha         1 7I1       0.115000
     48 H8          -5.5160     1.3390     0.7640 h1         1 7I1       0.048700
     49 H121        -5.7290    -1.5770     1.6110 hc         1 7I1       0.059450
     50 H122        -5.3830    -0.2010     2.6610 hc         1 7I1       0.059450
     51 H91C        -5.8840     0.4800    -1.5570 hc         1 7I1       0.059450
     52 H92C        -6.0330    -1.1560    -0.9230 hc         1 7I1       0.059450
     53 H111        -7.7950    -0.8590     2.7610 h1         1 7I1       0.055950
     54 H112        -7.5830     0.7840     2.1930 h1         1 7I1       0.055950
     55 H           -8.1780    -1.5590     0.5690 hn         1 7I1       0.408000
     56 H101        -8.2740    -0.1690    -1.3010 h1         1 7I1       0.055950
     57 H102        -7.8710     1.2070    -0.2920 h1         1 7I1       0.055950
@<TRIPOS>BOND
     1     1     2 2   
     2     2     3 1   
     3     2    15 1   
     4     3     4 1   
     5     3    32 1   
     6     4     5 1   
     7     4    33 1   
     8     4    34 1   
     9     5     6 ar  
    10     5    14 ar  
    11     6     7 ar  
    12     6    11 ar  
    13     7     8 ar  
    14     7    36 1   
    15     8     9 ar  
    16     8    37 1   
    17     9    10 ar  
    18     9    38 1   
    19    10    11 ar  
    20    10    39 1   
    21    11    12 ar  
    22    12    13 ar  
    23    12    40 1   
    24    13    14 ar  
    25    13    41 1   
    26    14    35 1   
    27    15    16 1   
    28    15    19 2   
    29    16    17 1   
    30    17    18 ar  
    31    17    24 ar  
    32    18    19 1   
    33    18    21 ar  
    34    19    20 1   
    35    20    43 1   
    36    20    44 1   
    37    20    45 1   
    38    21    22 ar  
    39    21    25 1   
    40    22    23 ar  
    41    22    46 1   
    42    23    24 ar  
    43    23    47 1   
    44    24    42 1   
    45    25    26 1   
    46    26    27 1   
    47    26    31 1   
    48    26    48 1   
    49    27    28 1   
    50    27    49 1   
    51    27    50 1   
    52    28    29 1   
    53    28    53 1   
    54    28    54 1   
    55    29    30 1   
    56    29    55 1   
    57    30    31 1   
    58    30    56 1   
    59    30    57 1   
    60    31    51 1   
    61    31    52 1   
@<TRIPOS>SUBSTRUCTURE
     1 7I1         1 TEMP              0 ****  ****    0 ROOT
