@<TRIPOS>MOLECULE
7I2
   22    23     1     0     0
SMALL
No Charge or Current Charge


@<TRIPOS>ATOM
      1 N1           0.7180    -0.0120     0.7320 nc         1 7I2      -0.248400
      2 N2          -0.0770    -0.0770     1.8940 na         1 7I2       0.081700
      3 C3          -1.4350    -0.1060     1.5710 cc         1 7I2      -0.152100
      4 C4          -2.6310    -0.0620    -0.6870 ca         1 7I2       0.007000
      5 C5          -2.4040    -0.0120    -2.0730 ca         1 7I2      -0.162000
      6 C6          -1.0850     0.0500    -2.5780 ca         1 7I2       0.007000
      7 C7           0.0300     0.0680    -1.7000 ca         1 7I2      -0.171200
      8 C8          -0.2180     0.0110    -0.3070 ca         1 7I2      -0.020000
      9 C9          -1.5110    -0.0490     0.1530 ca         1 7I2      -0.171000
     10 N10          1.4150     0.1330    -2.2670 no         1 7I2       0.702200
     11 O11          1.5800    -0.2640    -3.4300 o          1 7I2      -0.398500
     12 O12          2.3080     0.6730    -1.6000 o          1 7I2      -0.398500
     13 C13          0.5110    -0.1090     3.2150 c2         1 7I2       0.741700
     14 N14         -0.1240     0.2580     4.2500 n2         1 7I2      -0.863100
     15 N15          1.8060    -0.4960     3.3020 nv         1 7I2      -1.038200
     16 H31         -2.2010    -0.1930     2.3340 h4         1 7I2       0.238000
     17 H41         -3.6390    -0.1130    -0.2820 ha         1 7I2       0.126000
     18 H51         -3.2470    -0.0210    -2.7600 ha         1 7I2       0.130000
     19 H61         -0.9390     0.0920    -3.6570 ha         1 7I2       0.151000
     20 H14         -1.0630     0.5610     3.9620 hn         1 7I2       0.409400
     21 H151         2.2500    -0.1030     4.1230 hn         1 7I2       0.514500
     22 H152         2.3170    -0.3450     2.4390 hn         1 7I2       0.514500
@<TRIPOS>BOND
     1     1     2 1   
     2     1     8 2   
     3     2     3 1   
     4     2    13 1   
     5     3     9 2   
     6     3    16 1   
     7     4     5 ar  
     8     4     9 ar  
     9     4    17 1   
    10     5     6 ar  
    11     5    18 1   
    12     6     7 ar  
    13     6    19 1   
    14     7     8 ar  
    15     7    10 1   
    16     8     9 ar  
    17    10    11 1   
    18    10    12 1   
    19    13    14 2   
    20    13    15 1   
    21    14    20 1   
    22    15    21 1   
    23    15    22 1   
@<TRIPOS>SUBSTRUCTURE
     1 7I2         1 TEMP              0 ****  ****    0 ROOT
