@<TRIPOS>MOLECULE
7I2
   22    23     1     0     0
SMALL
abcg2


@<TRIPOS>ATOM
      1 N1           0.6610     0.0440     0.7680 nc         1 7I2      -0.248400
      2 N2          -0.1220    -0.0110     1.8490 na         1 7I2       0.081700
      3 C3          -1.4320    -0.0690     1.5810 cc         1 7I2      -0.152100
      4 C4          -2.6200    -0.0880    -0.6930 ca         1 7I2       0.007000
      5 C5          -2.3530    -0.0530    -2.0340 ca         1 7I2      -0.162000
      6 C6          -1.0260     0.0210    -2.5100 ca         1 7I2       0.007000
      7 C7           0.0460     0.0600    -1.6580 ca         1 7I2      -0.171200
      8 C8          -0.1810     0.0250    -0.2540 ca         1 7I2      -0.020000
      9 C9          -1.5330    -0.0480     0.2000 ca         1 7I2      -0.171000
     10 N10          1.3790     0.1360    -2.1990 no         1 7I2       0.702200
     11 O11          1.5180     0.1480    -3.4030 o          1 7I2      -0.398500
     12 O12          2.2980     0.1840    -1.4150 o          1 7I2      -0.398500
     13 C13          0.4810    -0.0080     3.1530 c2         1 7I2       0.741700
     14 N14         -0.1550     0.2500     4.2170 n2         1 7I2      -0.863100
     15 N15          1.7800    -0.3550     3.1150 nv         1 7I2      -1.038200
     16 H31         -2.1950    -0.1430     2.3370 h4         1 7I2       0.238000
     17 H41         -3.6360    -0.1450    -0.3260 ha         1 7I2       0.126000
     18 H51         -3.1580    -0.0810    -2.7540 ha         1 7I2       0.130000
     19 H61         -0.8640     0.0460    -3.5790 ha         1 7I2       0.151000
     20 H14         -1.1190     0.5100     4.0680 hn         1 7I2       0.409400
     21 H151         2.3270    -0.1730     3.9380 hn         1 7I2       0.514500
     22 H152         2.2650    -0.3670     2.2330 hn         1 7I2       0.514500
@<TRIPOS>BOND
     1     1     2 1   
     2     1     8 2   
     3     2     3 1   
     4     2    13 1   
     5     3     9 2   
     6     3    16 1   
     7     4     5 ar  
     8     4     9 ar  
     9     4    17 1   
    10     5     6 ar  
    11     5    18 1   
    12     6     7 ar  
    13     6    19 1   
    14     7     8 ar  
    15     7    10 1   
    16     8     9 ar  
    17    10    11 1   
    18    10    12 1   
    19    13    14 2   
    20    13    15 1   
    21    14    20 1   
    22    15    21 1   
    23    15    22 1   
@<TRIPOS>SUBSTRUCTURE
     1 7I2         1 TEMP              0 ****  ****    0 ROOT
