@<TRIPOS>MOLECULE
7I3
   25    24     1     0     0
SMALL
No Charge or Current Charge


@<TRIPOS>ATOM
      1 C4          15.1270    24.6930   -13.1970 ce         1 7I3      -0.094100
      2 C6          15.1760    23.4560   -13.7600 c2         1 7I3      -0.011100
      3 C8          16.3950    22.6440   -14.1890 c3         1 7I3       0.002800
      4 C10         18.1790    20.8920   -13.4160 c3         1 7I3      -0.060700
      5 O3          17.4710    25.2350   -13.0900 o          1 7I3      -0.716000
      6 C2          16.3260    25.5890   -12.8560 c          1 7I3       0.705200
      7 O1          16.0570    26.6700   -12.3460 o          1 7I3      -0.716000
      8 O5          13.9090    25.2520   -12.8770 oh         1 7I3      -0.621100
      9 O7          14.0150    22.8190   -13.9840 oh         1 7I3      -0.588100
     10 C9          17.0310    21.8590   -13.0140 c3         1 7I3      -0.067400
     11 C11         19.3910    21.6200   -14.0460 c3         1 7I3      -0.084100
     12 C12         18.6250    20.0330   -12.2110 c3         1 7I3      -0.084100
     13 H1          16.1090    21.9260   -14.9680 hc         1 7I3       0.055200
     14 H2          17.1390    23.2930   -14.6610 hc         1 7I3       0.055200
     15 H3          17.7830    20.2010   -14.1710 hc         1 7I3       0.031700
     16 H5          14.1510    26.1320   -12.4900 ho         1 7I3       0.499000
     17 H6          13.3340    23.4540   -13.6590 ho         1 7I3       0.454000
     18 H7          17.4000    22.5670   -12.2620 hc         1 7I3       0.041200
     19 H8          16.2390    21.2770   -12.5280 hc         1 7I3       0.041200
     20 H9          20.1940    20.9080   -14.2740 hc         1 7I3       0.026033
     21 H10         19.1140    22.1120   -14.9860 hc         1 7I3       0.026033
     22 H11         19.7900    22.3780   -13.3620 hc         1 7I3       0.026033
     23 H12         17.7780    19.4690   -11.8010 hc         1 7I3       0.026033
     24 H13         19.3950    19.3120   -12.5110 hc         1 7I3       0.026033
     25 H14         19.0370    20.6630   -11.4130 hc         1 7I3       0.026033
@<TRIPOS>BOND
     1     1     2 2   
     2     1     6 1   
     3     1     8 1   
     4     2     3 1   
     5     2     9 1   
     6     3    10 1   
     7     3    13 1   
     8     3    14 1   
     9     4    10 1   
    10     4    11 1   
    11     4    12 1   
    12     4    15 1   
    13     5     6 1   
    14     6     7 1   
    15     8    16 1   
    16     9    17 1   
    17    10    18 1   
    18    10    19 1   
    19    11    20 1   
    20    11    21 1   
    21    11    22 1   
    22    12    23 1   
    23    12    24 1   
    24    12    25 1   
@<TRIPOS>SUBSTRUCTURE
     1 7I3         1 TEMP              0 ****  ****    0 ROOT
