@<TRIPOS>MOLECULE
7I3
   25    24     1     0     0
SMALL
abcg2


@<TRIPOS>ATOM
      1 C4          15.1860    24.7440   -13.2510 ce         1 7I3      -0.094100
      2 C6          15.2640    23.4610   -13.6340 c2         1 7I3      -0.011100
      3 C8          16.4810    22.7160   -14.0730 c3         1 7I3       0.002800
      4 C10         18.1550    20.8670   -13.4530 c3         1 7I3      -0.060700
      5 O3          17.4480    25.5210   -13.4440 o          1 7I3      -0.716000
      6 C2          16.2710    25.7900   -13.1570 c          1 7I3       0.705200
      7 O1          15.8250    26.8980   -12.7630 o          1 7I3      -0.716000
      8 O5          13.9640    25.2310   -12.8640 oh         1 7I3      -0.621100
      9 O7          14.1550    22.6640   -13.6200 oh         1 7I3      -0.588100
     10 C9          17.0270    21.7880   -12.9840 c3         1 7I3      -0.067400
     11 C11         19.3780    21.6510   -13.9230 c3         1 7I3      -0.084100
     12 C12         18.5420    19.8980   -12.3420 c3         1 7I3      -0.084100
     13 H1          16.2200    22.1180   -14.9540 hc         1 7I3       0.055200
     14 H2          17.2440    23.4250   -14.3790 hc         1 7I3       0.055200
     15 H3          17.7770    20.2820   -14.3000 hc         1 7I3       0.031700
     16 H5          14.1890    26.1600   -12.6450 ho         1 7I3       0.499000
     17 H6          13.4060    23.1650   -13.2760 ho         1 7I3       0.454000
     18 H7          17.3870    22.3960   -12.1450 hc         1 7I3       0.041200
     19 H8          16.2140    21.1720   -12.5890 hc         1 7I3       0.041200
     20 H9          20.1800    20.9780   -14.2330 hc         1 7I3       0.026033
     21 H10         19.1540    22.3000   -14.7700 hc         1 7I3       0.026033
     22 H11         19.7660    22.2790   -13.1170 hc         1 7I3       0.026033
     23 H12         17.6880    19.3010   -12.0170 hc         1 7I3       0.026033
     24 H13         19.3240    19.2090   -12.6670 hc         1 7I3       0.026033
     25 H14         18.9190    20.4390   -11.4700 hc         1 7I3       0.026033
@<TRIPOS>BOND
     1     1     2 2   
     2     1     6 1   
     3     1     8 1   
     4     2     3 1   
     5     2     9 1   
     6     3    10 1   
     7     3    13 1   
     8     3    14 1   
     9     4    10 1   
    10     4    11 1   
    11     4    12 1   
    12     4    15 1   
    13     5     6 1   
    14     6     7 1   
    15     8    16 1   
    16     9    17 1   
    17    10    18 1   
    18    10    19 1   
    19    11    20 1   
    20    11    21 1   
    21    11    22 1   
    22    12    23 1   
    23    12    24 1   
    24    12    25 1   
@<TRIPOS>SUBSTRUCTURE
     1 7I3         1 TEMP              0 ****  ****    0 ROOT
