@<TRIPOS>MOLECULE
7I4
   53    56     1     0     0
SMALL
No Charge or Current Charge


@<TRIPOS>ATOM
      1 C11        123.1130   113.2880    83.2360 cc         1 7I4       0.631500
      2 C15        126.9310   113.5010    81.2110 ca         1 7I4      -0.071300
      3 C16        128.2690   113.5720    80.4840 c3         1 7I4       0.212100
      4 C18        130.3460   112.1630    79.8600 cy         1 7I4       0.157800
      5 C19        130.0310   110.6220    79.7550 cy         1 7I4      -0.206700
      6 C20        130.3840   110.1880    81.2530 c          1 7I4       0.737000
      7 O21        129.7080   109.3670    81.8650 o          1 7I4      -0.731000
      8 C23        128.5260   111.0410    79.9680 cy         1 7I4       0.157800
      9 C24        126.8260   113.8340    82.5750 ca         1 7I4       0.187000
     10 C26        125.5890   113.7660    83.2360 ca         1 7I4      -0.117000
     11 C01        118.8120   111.6790    90.3880 c3         1 7I4      -0.088600
     12 C02        119.2240   113.0880    90.8760 c3         1 7I4      -0.057700
     13 C03        118.5770   113.4140    92.2410 c3         1 7I4      -0.088600
     14 C04        118.9100   114.1880    89.8280 c3         1 7I4      -0.034100
     15 C05        119.6420   113.9890    88.5040 ca         1 7I4      -0.049300
     16 C06        121.0230   114.2350    88.4140 ca         1 7I4      -0.123500
     17 C07        121.7030   114.0500    87.1980 ca         1 7I4      -0.058500
     18 C08        121.0100   113.6150    86.0470 ca         1 7I4      -0.157500
     19 C09        121.7290   113.4210    84.7700 cd         1 7I4       0.541500
     20 N10        123.0110   113.6140    84.5570 nc         1 7I4      -0.714000
     21 C12        124.4180   113.3620    82.5480 ca         1 7I4      -0.138500
     22 C13        124.5330   113.0300    81.1770 ca         1 7I4      -0.094000
     23 C14        125.7740   113.0990    80.5190 ca         1 7I4      -0.099000
     24 N17        129.0300   112.3220    80.5560 nq         1 7I4      -0.701600
     25 O22        131.4600   110.4640    81.7730 o          1 7I4      -0.731000
     26 N27        121.9940   112.9130    82.6320 nd         1 7I4      -0.385300
     27 O28        121.0430   113.0000    83.6710 os         1 7I4      -0.095700
     28 C29        119.6220   113.3710    86.1420 ca         1 7I4      -0.058500
     29 C30        118.9460   113.5580    87.3600 ca         1 7I4      -0.123500
     30 H1         128.8780   114.3810    80.9090 h1         1 7I4       0.027700
     31 H2         128.0930   113.8170    79.4270 h1         1 7I4       0.027700
     32 H3         131.2340   112.4630    80.4270 h1         1 7I4       0.032700
     33 H4         130.3820   112.6420    78.8740 h1         1 7I4       0.032700
     34 H5         130.3690   109.9930    78.9280 hc         1 7I4       0.039700
     35 H7         127.9980   111.1720    79.0160 h1         1 7I4       0.032700
     36 H8         127.9110   110.4160    80.6250 h1         1 7I4       0.032700
     37 H9         125.5510   114.0320    84.2890 ha         1 7I4       0.144000
     38 H10        119.0470   110.9230    91.1470 hc         1 7I4       0.033367
     39 H11        117.7350   111.6360    90.1830 hc         1 7I4       0.033367
     40 H12        119.3480   111.4080    89.4710 hc         1 7I4       0.033367
     41 H13        120.3100   113.0760    91.0300 hc         1 7I4       0.050700
     42 H14        118.8470   112.6580    92.9880 hc         1 7I4       0.033367
     43 H15        118.9170   114.3890    92.6090 hc         1 7I4       0.033367
     44 H16        117.4830   113.4400    92.1590 hc         1 7I4       0.033367
     45 H17        119.1850   115.1650    90.2440 hc         1 7I4       0.047700
     46 H18        117.8260   114.2280    89.6620 hc         1 7I4       0.047700
     47 H19        121.5750   114.5710    89.2900 ha         1 7I4       0.115500
     48 H20        122.7730   114.2460    87.1540 ha         1 7I4       0.136000
     49 H21        123.6600   112.7130    80.6090 ha         1 7I4       0.125000
     50 H22        125.8360   112.8370    79.4650 ha         1 7I4       0.118000
     51 H24        119.0560   113.0340    85.2750 ha         1 7I4       0.136000
     52 H25        117.8780   113.3610    87.4140 ha         1 7I4       0.115500
     53 F25        127.9180   114.2290    83.2700 f          1 7I4      -0.162000
@<TRIPOS>BOND
     1     1    20 1   
     2     1    21 1   
     3     1    26 2   
     4     2     3 1   
     5     2     9 ar  
     6     2    23 ar  
     7     3    24 1   
     8     3    30 1   
     9     3    31 1   
    10     4     5 1   
    11     4    24 1   
    12     4    32 1   
    13     4    33 1   
    14     5     6 1   
    15     5     8 1   
    16     5    34 1   
    17     6     7 1   
    18     6    25 1   
    19     8    24 1   
    20     8    35 1   
    21     8    36 1   
    22     9    10 ar  
    23     9    53 1   
    24    10    21 ar  
    25    10    37 1   
    26    11    12 1   
    27    11    38 1   
    28    11    39 1   
    29    11    40 1   
    30    12    13 1   
    31    12    14 1   
    32    12    41 1   
    33    13    42 1   
    34    13    43 1   
    35    13    44 1   
    36    14    15 1   
    37    14    45 1   
    38    14    46 1   
    39    15    16 ar  
    40    15    29 ar  
    41    16    17 ar  
    42    16    47 1   
    43    17    18 ar  
    44    17    48 1   
    45    18    19 1   
    46    18    28 ar  
    47    19    20 2   
    48    19    27 1   
    49    21    22 ar  
    50    22    23 ar  
    51    22    49 1   
    52    23    50 1   
    53    26    27 1   
    54    28    29 ar  
    55    28    51 1   
    56    29    52 1   
@<TRIPOS>SUBSTRUCTURE
     1 7I4         1 TEMP              0 ****  ****    0 ROOT
