@<TRIPOS>MOLECULE
7I4
   53    56     1     0     0
SMALL
abcg2


@<TRIPOS>ATOM
      1 C11        123.1070   113.3910    83.2320 cc         1 7I4       0.631500
      2 C15        126.8550   113.5360    81.1850 ca         1 7I4      -0.071300
      3 C16        128.1830   113.5500    80.4810 c3         1 7I4       0.212100
      4 C18        130.2370   112.1980    80.1240 cy         1 7I4       0.157800
      5 C19        129.9440   110.6950    80.0490 cy         1 7I4      -0.206700
      6 C20        130.6150   109.7950    81.1000 c          1 7I4       0.737000
      7 O21        129.9760   108.7710    81.4180 o          1 7I4      -0.731000
      8 C23        128.4850   111.0830    80.3430 cy         1 7I4       0.157800
      9 C24        126.7430   113.7930    82.5450 ca         1 7I4       0.187000
     10 C26        125.5430   113.7570    83.2220 ca         1 7I4      -0.117000
     11 C01        119.0360   111.6720    90.3470 c3         1 7I4      -0.088600
     12 C02        119.3400   113.0920    90.8060 c3         1 7I4      -0.057700
     13 C03        118.6560   113.3870    92.1360 c3         1 7I4      -0.088600
     14 C04        118.9150   114.1320    89.7580 c3         1 7I4      -0.034100
     15 C05        119.6240   113.9770    88.4440 ca         1 7I4      -0.049300
     16 C06        120.9800   114.2880    88.3350 ca         1 7I4      -0.123500
     17 C07        121.6560   114.1280    87.1410 ca         1 7I4      -0.058500
     18 C08        120.9820   113.6540    86.0140 ca         1 7I4      -0.157500
     19 C09        121.7140   113.5000    84.7690 cd         1 7I4       0.541500
     20 N10        122.9820   113.6560    84.5620 nc         1 7I4      -0.714000
     21 C12        124.3830   113.4380    82.5200 ca         1 7I4      -0.138500
     22 C13        124.4560   113.1690    81.1560 ca         1 7I4      -0.094000
     23 C14        125.6800   113.2210    80.5100 ca         1 7I4      -0.099000
     24 N17        128.9600   112.3860    80.8240 nq         1 7I4      -0.701600
     25 O22        131.7410   110.1350    81.5100 o          1 7I4      -0.731000
     26 N27        121.9810   113.0880    82.6540 nd         1 7I4      -0.385300
     27 O28        121.0640   113.1610    83.6620 os         1 7I4      -0.095700
     28 C29        119.6260   113.3430    86.1080 ca         1 7I4      -0.058500
     29 C30        118.9630   113.5040    87.3130 ca         1 7I4      -0.123500
     30 H1         128.7500   114.4440    80.7570 h1         1 7I4       0.027700
     31 H2         128.0010   113.6180    79.3960 h1         1 7I4       0.027700
     32 H3         131.1240   112.5160    80.6760 h1         1 7I4       0.032700
     33 H4         130.2500   112.6730    79.1330 h1         1 7I4       0.032700
     34 H5         130.1010   110.2490    79.0630 hc         1 7I4       0.039700
     35 H7         127.8770   111.1570    79.4300 h1         1 7I4       0.032700
     36 H8         127.9390   110.4830    81.0740 h1         1 7I4       0.032700
     37 H9         125.5120   113.9740    84.2810 ha         1 7I4       0.144000
     38 H10        119.3300   110.9460    91.1060 hc         1 7I4       0.033367
     39 H11        117.9660   111.5460    90.1630 hc         1 7I4       0.033367
     40 H12        119.5610   111.4160    89.4260 hc         1 7I4       0.033367
     41 H13        120.4230   113.1840    90.9520 hc         1 7I4       0.050700
     42 H14        118.9760   112.6840    92.9070 hc         1 7I4       0.033367
     43 H15        118.8810   114.3940    92.4900 hc         1 7I4       0.033367
     44 H16        117.5710   113.3020    92.0410 hc         1 7I4       0.033367
     45 H17        119.1130   115.1320    90.1550 hc         1 7I4       0.047700
     46 H18        117.8340   114.0610    89.6050 hc         1 7I4       0.047700
     47 H19        121.5150   114.6660    89.1990 ha         1 7I4       0.115500
     48 H20        122.7070   114.3770    87.0770 ha         1 7I4       0.136000
     49 H21        123.5650   112.9190    80.5970 ha         1 7I4       0.125000
     50 H22        125.7310   113.0120    79.4480 ha         1 7I4       0.118000
     51 H24        119.0810   112.9710    85.2510 ha         1 7I4       0.136000
     52 H25        117.9110   113.2560    87.3750 ha         1 7I4       0.115500
     53 F25        127.8480   114.1060    83.2380 f          1 7I4      -0.162000
@<TRIPOS>BOND
     1     1    20 1   
     2     1    21 1   
     3     1    26 2   
     4     2     3 1   
     5     2     9 ar  
     6     2    23 ar  
     7     3    24 1   
     8     3    30 1   
     9     3    31 1   
    10     4     5 1   
    11     4    24 1   
    12     4    32 1   
    13     4    33 1   
    14     5     6 1   
    15     5     8 1   
    16     5    34 1   
    17     6     7 1   
    18     6    25 1   
    19     8    24 1   
    20     8    35 1   
    21     8    36 1   
    22     9    10 ar  
    23     9    53 1   
    24    10    21 ar  
    25    10    37 1   
    26    11    12 1   
    27    11    38 1   
    28    11    39 1   
    29    11    40 1   
    30    12    13 1   
    31    12    14 1   
    32    12    41 1   
    33    13    42 1   
    34    13    43 1   
    35    13    44 1   
    36    14    15 1   
    37    14    45 1   
    38    14    46 1   
    39    15    16 ar  
    40    15    29 ar  
    41    16    17 ar  
    42    16    47 1   
    43    17    18 ar  
    44    17    48 1   
    45    18    19 1   
    46    18    28 ar  
    47    19    20 2   
    48    19    27 1   
    49    21    22 ar  
    50    22    23 ar  
    51    22    49 1   
    52    23    50 1   
    53    26    27 1   
    54    28    29 ar  
    55    28    51 1   
    56    29    52 1   
@<TRIPOS>SUBSTRUCTURE
     1 7I4         1 TEMP              0 ****  ****    0 ROOT
