@<TRIPOS>MOLECULE
7I5
   64    68     1     0     0
SMALL
No Charge or Current Charge


@<TRIPOS>ATOM
      1 C10         13.4990     9.4820    79.1840 ca         1 7I5      -0.052500
      2 C13         13.1400     9.1140    76.4240 ca         1 7I5      -0.174000
      3 C15         18.5130    11.4560    76.7330 ca         1 7I5      -0.060000
      4 C17         17.5880    13.1060    75.2020 ca         1 7I5       0.132100
      5 C26         15.7580     6.4420    84.8030 ca         1 7I5      -0.121500
      6 C28         16.1350     8.8250    84.5930 ca         1 7I5      -0.121500
      7 C01         15.9920     9.6020    78.8910 ce         1 7I5      -0.061400
      8 C02         16.4880     8.8320    80.1250 c5         1 7I5       0.216500
      9 C03         17.3800     7.7420    79.4590 c5         1 7I5      -0.341700
     10 C04         18.7070     8.5420    79.1660 c5         1 7I5      -0.061400
     11 C05         17.0730    10.3080    78.4290 cf         1 7I5      -0.080400
     12 C06         18.1910     9.9870    79.4520 c5         1 7I5       0.181500
     13 O07         17.4440     9.7630    80.6370 os         1 7I5      -0.419000
     14 C08         17.2440    11.2660    77.3180 ca         1 7I5      -0.063800
     15 C09         14.6210     9.4560    78.3330 ca         1 7I5      -0.081800
     16 C11         12.2040     9.3310    78.6560 ca         1 7I5      -0.174000
     17 C12         12.0270     9.1480    77.2750 ca         1 7I5       0.139100
     18 C14         14.4350     9.2640    76.9500 ca         1 7I5      -0.052500
     19 C16         18.6820    12.3700    75.6780 ca         1 7I5      -0.172500
     20 C18         16.3230    12.9330    75.7830 ca         1 7I5      -0.172500
     21 C19         16.1520    12.0190    76.8380 ca         1 7I5      -0.060000
     22 O21         10.7760     9.0020    76.7560 oh         1 7I5      -0.541100
     23 C23         17.2620     7.2810    83.0620 ca         1 7I5       0.190000
     24 C25         16.6410     6.2090    83.7330 ca         1 7I5      -0.089500
     25 C27         15.4900     7.7520    85.2390 ca         1 7I5       0.025200
     26 C29         17.0170     8.5880    83.5240 ca         1 7I5      -0.089500
     27 C30         14.5500     7.9690    86.3760 ce         1 7I5      -0.250200
     28 C31         14.1280     9.1430    86.9440 cf         1 7I5      -0.190200
     29 S32         17.6040     6.2360    80.5570 s6         1 7I5       1.243100
     30 O33         16.2960     5.6440    80.8520 o          1 7I5      -0.543000
     31 O34         18.6950     5.3920    80.0550 o          1 7I5      -0.543000
     32 C35         20.3280     7.9980    83.1450 c3         1 7I5       0.278000
     33 F36         20.1330     9.2160    82.5890 f          1 7I5      -0.113333
     34 F37         19.8810     8.0390    84.4220 f          1 7I5      -0.113333
     35 F38         21.6620     7.7800    83.1900 f          1 7I5      -0.113333
     36 C39         13.1750     9.2590    88.0910 c          1 7I5       0.685200
     37 O40         12.8990    10.3820    88.4810 o          1 7I5      -0.720500
     38 O41         12.7160     8.2410    88.5860 o          1 7I5      -0.720500
     39 N22         18.1730     7.0360    82.0070 nh         1 7I5      -0.783300
     40 H1          13.6290     9.6280    80.2550 ha         1 7I5       0.123500
     41 H2          13.0030     8.9680    75.3550 ha         1 7I5       0.123500
     42 H3          19.3710    10.8880    77.0850 ha         1 7I5       0.121000
     43 H4          19.7680     5.9320    82.8690 h1         1 7I5       0.088200
     44 H5          20.2100     6.7760    81.4000 h1         1 7I5       0.088200
     45 H7          15.9680     9.8480    84.9160 ha         1 7I5       0.122000
     46 H9          15.7330     8.5120    80.8580 h1         1 7I5       0.124700
     47 H10         16.9250     7.3450    78.5460 h1         1 7I5       0.111700
     48 H11         19.0590     8.4170    78.1360 hc         1 7I5       0.063200
     49 H12         19.5360     8.2850    79.8330 hc         1 7I5       0.063200
     50 H14         18.9620    10.7600    79.5820 h1         1 7I5       0.104700
     51 H15         11.3470     9.3580    79.3250 ha         1 7I5       0.123500
     52 H16         15.2950     9.2280    76.2850 ha         1 7I5       0.123500
     53 H17         19.6630    12.5050    75.2300 ha         1 7I5       0.120000
     54 H18         15.4690    13.5050    75.4280 ha         1 7I5       0.120000
     55 H19         15.1700    11.9120    77.2920 ha         1 7I5       0.121000
     56 H21         10.1270     9.0500    77.4900 ho         1 7I5       0.465000
     57 H22         16.8460     5.1870    83.4280 ha         1 7I5       0.115000
     58 H23         17.5220     9.4290    83.0640 ha         1 7I5       0.115000
     59 H24         14.1540     7.0420    86.7970 ha         1 7I5       0.193000
     60 H25         14.4940    10.0900    86.5560 ha         1 7I5       0.146000
     61 H6          15.2850     5.5950    85.2950 ha         1 7I5       0.122000
     62 H20         16.8980    14.4100    73.9830 ho         1 7I5       0.462000
     63 O20         17.7620    13.9890    74.1800 oh         1 7I5      -0.540100
     64 C24         19.6270     6.8760    82.3250 c3         1 7I5       0.169800
@<TRIPOS>BOND
     1     1    15 ar  
     2     1    16 ar  
     3     1    40 1   
     4     2    17 ar  
     5     2    18 ar  
     6     2    41 1   
     7     3    14 ar  
     8     3    19 ar  
     9     3    42 1   
    10     4    19 ar  
    11     4    20 ar  
    12     4    63 1   
    13     5    24 ar  
    14     5    25 ar  
    15     5    61 1   
    16     6    25 ar  
    17     6    26 ar  
    18     6    45 1   
    19     7     8 1   
    20     7    11 2   
    21     7    15 1   
    22     8     9 1   
    23     8    13 1   
    24     8    46 1   
    25     9    10 1   
    26     9    29 1   
    27     9    47 1   
    28    10    12 1   
    29    10    48 1   
    30    10    49 1   
    31    11    12 1   
    32    11    14 1   
    33    12    13 1   
    34    12    50 1   
    35    14    21 ar  
    36    15    18 ar  
    37    16    17 ar  
    38    16    51 1   
    39    17    22 1   
    40    18    52 1   
    41    19    53 1   
    42    20    21 ar  
    43    20    54 1   
    44    21    55 1   
    45    22    56 1   
    46    23    24 ar  
    47    23    26 ar  
    48    23    39 1   
    49    24    57 1   
    50    25    27 1   
    51    26    58 1   
    52    27    28 2   
    53    27    59 1   
    54    28    36 1   
    55    28    60 1   
    56    29    30 2   
    57    29    31 2   
    58    29    39 1   
    59    32    33 1   
    60    32    34 1   
    61    32    35 1   
    62    32    64 1   
    63    36    37 1   
    64    36    38 1   
    65    39    64 1   
    66    43    64 1   
    67    44    64 1   
    68    62    63 1   
@<TRIPOS>SUBSTRUCTURE
     1 7I5         1 TEMP              0 ****  ****    0 ROOT
