@<TRIPOS>MOLECULE
7I5
   64    68     1     0     0
SMALL
abcg2


@<TRIPOS>ATOM
      1 C10         13.4580     9.4250    79.0460 ca         1 7I5      -0.052500
      2 C13         13.2310     9.1890    76.2900 ca         1 7I5      -0.174000
      3 C15         18.5310    11.4700    76.7730 ca         1 7I5      -0.060000
      4 C17         17.7560    13.1000    75.1830 ca         1 7I5       0.132100
      5 C26         16.0610     6.4010    85.1520 ca         1 7I5      -0.121500
      6 C28         15.9410     8.7380    84.6020 ca         1 7I5      -0.121500
      7 C01         15.9090     9.8080    78.8750 ce         1 7I5      -0.061400
      8 C02         16.3570     9.0390    80.1160 c5         1 7I5       0.216500
      9 C03         17.2020     7.8550    79.5490 c5         1 7I5      -0.341700
     10 C04         18.4960     8.5790    79.1230 c5         1 7I5      -0.061400
     11 C05         17.0120    10.4740    78.4670 cf         1 7I5      -0.080400
     12 C06         18.1100    10.0510    79.4430 c5         1 7I5       0.181500
     13 O07         17.3700     9.8840    80.6650 os         1 7I5      -0.419000
     14 C08         17.2520    11.3660    77.3400 ca         1 7I5      -0.063800
     15 C09         14.6040     9.5780    78.2570 ca         1 7I5      -0.081800
     16 C11         12.2170     9.1740    78.4790 ca         1 7I5      -0.174000
     17 C12         12.0990     9.0550    77.0960 ca         1 7I5       0.139100
     18 C14         14.4620     9.4450    76.8680 ca         1 7I5      -0.052500
     19 C16         18.7830    12.3170    75.7040 ca         1 7I5      -0.172500
     20 C18         16.4810    13.0330    75.7490 ca         1 7I5      -0.172500
     21 C19         16.2390    12.1770    76.8090 ca         1 7I5      -0.060000
     22 O21         10.9110     8.7990    76.4800 oh         1 7I5      -0.541100
     23 C23         17.2220     7.2390    83.2240 ca         1 7I5       0.190000
     24 C25         16.8750     6.1780    84.0520 ca         1 7I5      -0.089500
     25 C27         15.5750     7.6830    85.4500 ca         1 7I5       0.025200
     26 C29         16.7570     8.5210    83.5040 ca         1 7I5      -0.089500
     27 C30         14.7200     7.8600    86.6250 ce         1 7I5      -0.250200
     28 C31         14.1880     9.0020    87.0710 cf         1 7I5      -0.190200
     29 S32         17.4230     6.4730    80.6730 s6         1 7I5       1.243100
     30 O33         16.0970     5.9880    80.9790 o          1 7I5      -0.543000
     31 O34         18.3790     5.5780    80.0580 o          1 7I5      -0.543000
     32 C35         20.2800     7.9710    82.7960 c3         1 7I5       0.278000
     33 F36         20.2040     8.9810    81.9100 f          1 7I5      -0.113333
     34 F37         19.8770     8.4630    83.9870 f          1 7I5      -0.113333
     35 F38         21.5860     7.6500    82.9280 f          1 7I5      -0.113333
     36 C39         13.3120     9.1040    88.2960 c          1 7I5       0.685200
     37 O40         12.8770    10.2610    88.5530 o          1 7I5      -0.720500
     38 O41         13.0760     8.0610    88.9590 o          1 7I5      -0.720500
     39 N22         18.0930     7.0190    82.0950 nh         1 7I5      -0.783300
     40 H1          13.5300     9.5150    80.1230 ha         1 7I5       0.123500
     41 H2          13.1340     9.0800    75.2180 ha         1 7I5       0.123500
     42 H3          19.3440    10.8700    77.1620 ha         1 7I5       0.121000
     43 H4          19.6050     6.0000    83.1620 h1         1 7I5       0.088200
     44 H5          19.9730     6.3530    81.4720 h1         1 7I5       0.088200
     45 H7          15.5900     9.7410    84.8020 ha         1 7I5       0.122000
     46 H9          15.6040     8.7780    80.8500 h1         1 7I5       0.124700
     47 H10         16.6890     7.3650    78.7210 h1         1 7I5       0.111700
     48 H11         18.7290     8.4180    78.0730 hc         1 7I5       0.063200
     49 H12         19.3520     8.2790    79.7210 hc         1 7I5       0.063200
     50 H14         18.9410    10.7350    79.5840 h1         1 7I5       0.104700
     51 H15         11.3390     9.0660    79.1060 ha         1 7I5       0.123500
     52 H16         15.3340     9.5340    76.2350 ha         1 7I5       0.123500
     53 H17         19.7720    12.3800    75.2690 ha         1 7I5       0.120000
     54 H18         15.6870    13.6580    75.3580 ha         1 7I5       0.120000
     55 H19         15.2480    12.1450    77.2420 ha         1 7I5       0.121000
     56 H21         10.2050     8.7260    77.1370 ho         1 7I5       0.465000
     57 H22         17.2380     5.1820    83.8300 ha         1 7I5       0.115000
     58 H23         17.0470     9.3390    82.8620 ha         1 7I5       0.115000
     59 H24         14.5050     6.9560    87.1880 ha         1 7I5       0.193000
     60 H25         14.3650     9.9400    86.5540 ha         1 7I5       0.146000
     61 H6          15.7900     5.5720    85.7940 ha         1 7I5       0.122000
     62 H20         17.2580    14.4080    73.8630 ho         1 7I5       0.462000
     63 O20         18.0480    13.9200    74.1330 oh         1 7I5      -0.540100
     64 C24         19.4970     6.7420    82.3680 c3         1 7I5       0.169800
@<TRIPOS>BOND
     1     1    15 ar  
     2     1    16 ar  
     3     1    40 1   
     4     2    17 ar  
     5     2    18 ar  
     6     2    41 1   
     7     3    14 ar  
     8     3    19 ar  
     9     3    42 1   
    10     4    19 ar  
    11     4    20 ar  
    12     4    63 1   
    13     5    24 ar  
    14     5    25 ar  
    15     5    61 1   
    16     6    25 ar  
    17     6    26 ar  
    18     6    45 1   
    19     7     8 1   
    20     7    11 2   
    21     7    15 1   
    22     8     9 1   
    23     8    13 1   
    24     8    46 1   
    25     9    10 1   
    26     9    29 1   
    27     9    47 1   
    28    10    12 1   
    29    10    48 1   
    30    10    49 1   
    31    11    12 1   
    32    11    14 1   
    33    12    13 1   
    34    12    50 1   
    35    14    21 ar  
    36    15    18 ar  
    37    16    17 ar  
    38    16    51 1   
    39    17    22 1   
    40    18    52 1   
    41    19    53 1   
    42    20    21 ar  
    43    20    54 1   
    44    21    55 1   
    45    22    56 1   
    46    23    24 ar  
    47    23    26 ar  
    48    23    39 1   
    49    24    57 1   
    50    25    27 1   
    51    26    58 1   
    52    27    28 2   
    53    27    59 1   
    54    28    36 1   
    55    28    60 1   
    56    29    30 2   
    57    29    31 2   
    58    29    39 1   
    59    32    33 1   
    60    32    34 1   
    61    32    35 1   
    62    32    64 1   
    63    36    37 1   
    64    36    38 1   
    65    39    64 1   
    66    43    64 1   
    67    44    64 1   
    68    62    63 1   
@<TRIPOS>SUBSTRUCTURE
     1 7I5         1 TEMP              0 ****  ****    0 ROOT
