@<TRIPOS>MOLECULE
7I6
   64    66     1     0     0
SMALL
abcg2


@<TRIPOS>ATOM
      1 CAB          7.2820     1.8840    -1.9520 c3         1 7I6       0.021900
      2 SAW          6.0160     0.7170    -1.4230 ss         1 7I6      -0.179000
      3 CBB          5.2890     1.4860    -0.0070 ca         1 7I6      -0.073000
      4 CAH          5.7690     2.6820     0.5230 ca         1 7I6      -0.124000
      5 CAF          5.1860     3.2390     1.6510 ca         1 7I6      -0.095000
      6 CAG          4.1190     2.6030     2.2660 ca         1 7I6      -0.114000
      7 CAI          3.6400     1.4130     1.7380 ca         1 7I6      -0.080000
      8 CBC          4.2000     0.8440     0.6020 ca         1 7I6      -0.066300
      9 CBE          3.7010    -0.4840     0.0860 c5         1 7I6       0.155000
     10 CAQ          4.4240    -1.6670     0.7530 c5         1 7I6      -0.089400
     11 CAN          3.3740    -2.7680     0.7830 c5         1 7I6      -0.096400
     12 CAS          2.1000    -2.0010     1.1020 c5         1 7I6       0.100000
     13 NBF          2.2930    -0.7410     0.3850 n          1 7I6      -0.412800
     14 C            1.3340     0.0340    -0.1460 c          1 7I6       0.594100
     15 O            1.5890     0.9970    -0.8570 o          1 7I6      -0.594100
     16 CA          -0.1160    -0.3450     0.1480 c3         1 7I6       0.046700
     17 CB          -0.6190    -1.2770    -0.9670 c3         1 7I6      -0.088400
     18 CG          -2.0360    -1.7670    -0.7120 c3         1 7I6       0.066600
     19 SD          -2.5220    -2.9160    -2.0300 ss         1 7I6      -0.444000
     20 CE          -4.2120    -3.2810    -1.5100 c3         1 7I6       0.042900
     21 N           -0.9020     0.8530     0.2490 ns         1 7I6      -0.516900
     22 CAX         -1.8630     1.0170     1.1980 c          1 7I6       0.643100
     23 OAD         -2.0270     0.2290     2.1210 o          1 7I6      -0.646100
     24 NAT         -2.6070     2.1550     1.0640 ns         1 7I6      -0.483900
     25 CAP         -3.9310     2.2160     1.6650 c3         1 7I6       0.150300
     26 CBA         -4.9330     1.3410     0.9540 ca         1 7I6      -0.179300
     27 CAL         -5.5260     1.7650    -0.2330 ca         1 7I6      -0.052500
     28 CAJ         -6.3860     0.9480    -0.9470 ca         1 7I6      -0.184000
     29 CAZ         -6.6870    -0.3410    -0.4900 ca         1 7I6       0.293000
     30 NAC         -7.5800    -1.1430    -1.1740 nv         1 7I6      -1.070000
     31 CAK         -6.1010    -0.7670     0.7060 ca         1 7I6      -0.184000
     32 CAM         -5.2400     0.0620     1.4070 ca         1 7I6      -0.052500
     33 H1           7.7200     1.4490    -2.8490 h1         1 7I6       0.065033
     34 H2           6.8590     2.8530    -2.2070 h1         1 7I6       0.065033
     35 H3           8.0640     2.0020    -1.2050 h1         1 7I6       0.065033
     36 H4           6.6030     3.1960     0.0630 ha         1 7I6       0.111000
     37 H5           5.5720     4.1700     2.0440 ha         1 7I6       0.112000
     38 H6           3.6610     3.0270     3.1500 ha         1 7I6       0.116000
     39 H7           2.8050     0.9190     2.2220 ha         1 7I6       0.119000
     40 H8           3.8340    -0.5320    -1.0000 h1         1 7I6       0.079700
     41 H9           5.3310    -1.9400     0.2150 hc         1 7I6       0.062700
     42 H10          4.7110    -1.3950     1.7710 hc         1 7I6       0.062700
     43 H11          3.2870    -3.2470    -0.1940 hc         1 7I6       0.056700
     44 H12          3.5840    -3.5400     1.5210 hc         1 7I6       0.056700
     45 H13          1.2090    -2.5270     0.7640 h1         1 7I6       0.051700
     46 H14          2.0030    -1.8260     2.1770 h1         1 7I6       0.051700
     47 H15         -0.1900    -0.8610     1.1060 h1         1 7I6       0.095700
     48 H16         -0.5690    -0.7480    -1.9230 hc         1 7I6       0.063700
     49 H17          0.0550    -2.1350    -1.0470 hc         1 7I6       0.063700
     50 H18         -2.0960    -2.2780     0.2510 h1         1 7I6       0.066700
     51 H19         -2.7440    -0.9370    -0.6940 h1         1 7I6       0.066700
     52 H20         -4.2300    -3.6930    -0.5010 h1         1 7I6       0.057700
     53 H21         -4.8390    -2.3920    -1.5450 h1         1 7I6       0.057700
     54 H22         -4.6160    -4.0240    -2.1960 h1         1 7I6       0.057700
     55 H23         -0.8460     1.4990    -0.5220 hn         1 7I6       0.326500
     56 H24         -2.5260     2.6500     0.1890 hn         1 7I6       0.290500
     57 H25         -3.8560     1.9420     2.7160 h1         1 7I6       0.067200
     58 H26         -4.2450     3.2600     1.6330 h1         1 7I6       0.067200
     59 H27         -5.3140     2.7580    -0.6150 ha         1 7I6       0.117000
     60 H28         -6.8330     1.3080    -1.8660 ha         1 7I6       0.113500
     61 H29         -7.6550    -0.9640    -2.1630 hn         1 7I6       0.447000
     62 H30         -7.5140    -2.1300    -0.9820 hn         1 7I6       0.447000
     63 H31         -6.3170    -1.7600     1.0830 ha         1 7I6       0.113500
     64 H32         -4.7920    -0.3020     2.3230 ha         1 7I6       0.117000
@<TRIPOS>BOND
     1     1     2 1   
     2     1    33 1   
     3     1    34 1   
     4     1    35 1   
     5     2     3 1   
     6     3     4 ar  
     7     3     8 ar  
     8     4     5 ar  
     9     4    36 1   
    10     5     6 ar  
    11     5    37 1   
    12     6     7 ar  
    13     6    38 1   
    14     7     8 ar  
    15     7    39 1   
    16     8     9 1   
    17     9    10 1   
    18     9    13 1   
    19     9    40 1   
    20    10    11 1   
    21    10    41 1   
    22    10    42 1   
    23    11    12 1   
    24    11    43 1   
    25    11    44 1   
    26    12    13 1   
    27    12    45 1   
    28    12    46 1   
    29    13    14 1   
    30    14    15 2   
    31    14    16 1   
    32    16    17 1   
    33    16    21 1   
    34    16    47 1   
    35    17    18 1   
    36    17    48 1   
    37    17    49 1   
    38    18    19 1   
    39    18    50 1   
    40    18    51 1   
    41    19    20 1   
    42    20    52 1   
    43    20    53 1   
    44    20    54 1   
    45    21    22 1   
    46    21    55 1   
    47    22    23 2   
    48    22    24 1   
    49    24    25 1   
    50    24    56 1   
    51    25    26 1   
    52    25    57 1   
    53    25    58 1   
    54    26    27 ar  
    55    26    32 ar  
    56    27    28 ar  
    57    27    59 1   
    58    28    29 ar  
    59    28    60 1   
    60    29    30 1   
    61    29    31 ar  
    62    30    61 1   
    63    30    62 1   
    64    31    32 ar  
    65    31    63 1   
    66    32    64 1   
@<TRIPOS>SUBSTRUCTURE
     1 7I6         1 TEMP              0 ****  ****    0 ROOT
