@<TRIPOS>MOLECULE
7I6
   64    66     1     0     0
SMALL
No Charge or Current Charge


@<TRIPOS>ATOM
      1 CAB          7.5810     2.1100    -1.7840 c3         1 7I6       0.021900
      2 SAW          5.9150     1.3110    -1.7790 ss         1 7I6      -0.179000
      3 CBB          5.1800     1.7820    -0.2050 ca         1 7I6      -0.073000
      4 CAH          5.4680     3.0480     0.3470 ca         1 7I6      -0.124000
      5 CAF          4.9210     3.4320     1.5800 ca         1 7I6      -0.095000
      6 CAG          4.0820     2.5510     2.2750 ca         1 7I6      -0.114000
      7 CAI          3.7810     1.2930     1.7300 ca         1 7I6      -0.080000
      8 CBC          4.3120     0.8910     0.4800 ca         1 7I6      -0.066300
      9 CBE          3.9760    -0.4990    -0.1020 c5         1 7I6       0.155000
     10 CAQ          4.8100    -1.5320     0.7140 c5         1 7I6      -0.089400
     11 CAN          3.8700    -2.7610     0.7360 c5         1 7I6      -0.096400
     12 CAS          2.5040    -2.1030     1.0510 c5         1 7I6       0.100000
     13 NBF          2.5760    -0.8850     0.2110 n          1 7I6      -0.412800
     14 C            1.4550    -0.1220    -0.1990 c          1 7I6       0.594100
     15 O            1.6060     0.8990    -0.8630 o          1 7I6      -0.594100
     16 CA           0.0240    -0.6260     0.1720 c3         1 7I6       0.046700
     17 CB          -0.4530    -1.7390    -0.8030 c3         1 7I6      -0.088400
     18 CG          -1.7780    -2.4120    -0.3910 c3         1 7I6       0.066600
     19 SD          -2.2030    -3.7730    -1.5680 ss         1 7I6      -0.444000
     20 CE          -3.8530    -4.2670    -0.8900 c3         1 7I6       0.042900
     21 N           -0.9330     0.5050     0.1820 ns         1 7I6      -0.516900
     22 CAX         -1.9860     0.6300     1.0450 c          1 7I6       0.643100
     23 OAD         -2.2190    -0.1630     1.9410 o          1 7I6      -0.646100
     24 NAT         -2.7510     1.7340     0.7870 ns         1 7I6      -0.483900
     25 CAP         -3.9890     2.0610     1.4910 c3         1 7I6       0.150300
     26 CBA         -5.1980     1.5290     0.7370 ca         1 7I6      -0.179300
     27 CAL         -5.9300     2.3720    -0.1220 ca         1 7I6      -0.052500
     28 CAJ         -7.0420     1.8710    -0.8220 ca         1 7I6      -0.184000
     29 CAZ         -7.4270     0.5320    -0.6700 ca         1 7I6       0.293000
     30 NAC         -8.5090     0.0490    -1.3530 nv         1 7I6      -1.070000
     31 CAK         -6.7020    -0.3110     0.1820 ca         1 7I6      -0.184000
     32 CAM         -5.5890     0.1830     0.8860 ca         1 7I6      -0.052500
     33 H1           8.1530     1.7530    -2.6500 h1         1 7I6       0.065033
     34 H2           7.4790     3.1990    -1.8530 h1         1 7I6       0.065033
     35 H3           8.1200     1.8480    -0.8650 h1         1 7I6       0.065033
     36 H4           6.1100     3.7480    -0.1780 ha         1 7I6       0.111000
     37 H5           5.1500     4.4100     1.9980 ha         1 7I6       0.112000
     38 H6           3.6610     2.8430     3.2340 ha         1 7I6       0.116000
     39 H7           3.1310     0.6260     2.2910 ha         1 7I6       0.119000
     40 H8           4.1550    -0.5830    -1.1820 h1         1 7I6       0.079700
     41 H9           5.7780    -1.7450     0.2460 hc         1 7I6       0.062700
     42 H10          5.0150    -1.1910     1.7360 hc         1 7I6       0.062700
     43 H11          3.8520    -3.2650    -0.2380 hc         1 7I6       0.056700
     44 H12          4.1600    -3.5050     1.4870 hc         1 7I6       0.056700
     45 H13          1.6730    -2.7700     0.7930 h1         1 7I6       0.051700
     46 H14          2.4190    -1.8370     2.1130 h1         1 7I6       0.051700
     47 H15          0.0850    -1.0380     1.1870 h1         1 7I6       0.095700
     48 H16         -0.5690    -1.3100    -1.8060 hc         1 7I6       0.063700
     49 H17          0.3170    -2.5130    -0.8900 hc         1 7I6       0.063700
     50 H18         -1.6890    -2.8250     0.6230 h1         1 7I6       0.066700
     51 H19         -2.5910    -1.6750    -0.3960 h1         1 7I6       0.066700
     52 H20         -3.7450    -4.5990     0.1510 h1         1 7I6       0.057700
     53 H21         -4.5420    -3.4140    -0.9270 h1         1 7I6       0.057700
     54 H22         -4.2680    -5.0900    -1.4870 h1         1 7I6       0.057700
     55 H23         -0.8040     1.2410    -0.5020 hn         1 7I6       0.326500
     56 H24         -2.4720     2.3230     0.0150 hn         1 7I6       0.290500
     57 H25         -3.9640     1.6400     2.5050 h1         1 7I6       0.067200
     58 H26         -4.0590     3.1530     1.5900 h1         1 7I6       0.067200
     59 H27         -5.6370     3.4120    -0.2500 ha         1 7I6       0.117000
     60 H28         -7.6010     2.5290    -1.4820 ha         1 7I6       0.113500
     61 H29         -8.9460     0.6170    -2.0770 hn         1 7I6       0.447000
     62 H30         -8.7030    -0.9500    -1.3570 hn         1 7I6       0.447000
     63 H31         -6.9950    -1.3500     0.3040 ha         1 7I6       0.113500
     64 H32         -5.0300    -0.4790     1.5440 ha         1 7I6       0.117000
@<TRIPOS>BOND
     1     1     2 1   
     2     1    33 1   
     3     1    34 1   
     4     1    35 1   
     5     2     3 1   
     6     3     4 ar  
     7     3     8 ar  
     8     4     5 ar  
     9     4    36 1   
    10     5     6 ar  
    11     5    37 1   
    12     6     7 ar  
    13     6    38 1   
    14     7     8 ar  
    15     7    39 1   
    16     8     9 1   
    17     9    10 1   
    18     9    13 1   
    19     9    40 1   
    20    10    11 1   
    21    10    41 1   
    22    10    42 1   
    23    11    12 1   
    24    11    43 1   
    25    11    44 1   
    26    12    13 1   
    27    12    45 1   
    28    12    46 1   
    29    13    14 1   
    30    14    15 2   
    31    14    16 1   
    32    16    17 1   
    33    16    21 1   
    34    16    47 1   
    35    17    18 1   
    36    17    48 1   
    37    17    49 1   
    38    18    19 1   
    39    18    50 1   
    40    18    51 1   
    41    19    20 1   
    42    20    52 1   
    43    20    53 1   
    44    20    54 1   
    45    21    22 1   
    46    21    55 1   
    47    22    23 2   
    48    22    24 1   
    49    24    25 1   
    50    24    56 1   
    51    25    26 1   
    52    25    57 1   
    53    25    58 1   
    54    26    27 ar  
    55    26    32 ar  
    56    27    28 ar  
    57    27    59 1   
    58    28    29 ar  
    59    28    60 1   
    60    29    30 1   
    61    29    31 ar  
    62    30    61 1   
    63    30    62 1   
    64    31    32 ar  
    65    31    63 1   
    66    32    64 1   
@<TRIPOS>SUBSTRUCTURE
     1 7I6         1 TEMP              0 ****  ****    0 ROOT
