@<TRIPOS>MOLECULE
7I7
   44    43     1     0     0
SMALL
abcg2


@<TRIPOS>ATOM
      1 OAA          2.2180    59.1210    49.2300 o          1 7I7      -0.600100
      2 CAB          1.1560    58.6230    48.8670 c          1 7I7       0.593900
      3 NAC          0.0600    59.3080    48.5060 ns         1 7I7      -0.519900
      4 CAD         -0.0320    60.7580    48.5290 c3         1 7I7       0.061000
      5 CAE         -0.5620    61.2590    49.8740 c3         1 7I7       0.137600
      6 OAF         -0.6180    62.6770    49.9390 os         1 7I7      -0.454000
      7 CAG         -1.6860    63.2850    49.2130 c3         1 7I7       0.116600
      8 CAH         -1.1040    64.1560    48.1050 c3         1 7I7       0.138600
      9 OAI         -2.0920    64.9240    47.4290 os         1 7I7      -0.478000
     10 CAJ         -2.9460    64.1670    46.5760 c3         1 7I7       0.145600
     11 CAK         -3.6260    65.1450    45.6420 c3         1 7I7       0.160600
     12 OAL         -4.6000    64.4240    44.9020 os         1 7I7      -0.460000
     13 CAM         -5.4060    65.2230    44.0430 c3         1 7I7       0.146600
     14 CAN         -6.7670    65.5410    44.6450 c3         1 7I7       0.070000
     15 NAO         -6.6920    66.4170    45.8010 ns         1 7I7      -0.514900
     16 CAP         -7.2320    66.1440    47.0060 c          1 7I7       0.604100
     17 OAQ         -7.8590    65.1110    47.2470 o          1 7I7      -0.585100
     18 CAR         -7.0160    67.2150    48.0650 c3         1 7I7      -0.153400
     19 CAS         -5.5620    67.3650    48.5180 c3         1 7I7       0.097600
     20 SAT         -4.9390    65.8450    49.3490 sh         1 7I7      -0.472800
     21 H1           1.0150    57.5340    48.7970 h5         1 7I7       0.011200
     22 H2          -0.7590    58.7760    48.2530 hn         1 7I7       0.313500
     23 H3           0.9590    61.1730    48.3510 h1         1 7I7       0.061700
     24 H4          -0.6880    61.0710    47.7180 h1         1 7I7       0.061700
     25 H5          -1.5500    60.8270    50.0690 h1         1 7I7       0.055200
     26 H6           0.1120    60.9430    50.6700 h1         1 7I7       0.055200
     27 H7          -2.2640    63.9060    49.9030 h1         1 7I7       0.050200
     28 H8          -2.3540    62.5220    48.8040 h1         1 7I7       0.050200
     29 H9          -0.5560    63.5350    47.3870 h1         1 7I7       0.057200
     30 H10         -0.4090    64.8730    48.5430 h1         1 7I7       0.057200
     31 H11         -3.7030    63.6300    47.1560 h1         1 7I7       0.045700
     32 H12         -2.3600    63.4350    46.0100 h1         1 7I7       0.045700
     33 H13         -2.8920    65.6010    44.9660 h1         1 7I7       0.030700
     34 H14         -4.0900    65.9420    46.2270 h1         1 7I7       0.030700
     35 H15         -4.8780    66.1450    43.7760 h1         1 7I7       0.046200
     36 H16         -5.5670    64.6520    43.1250 h1         1 7I7       0.046200
     37 H17         -7.3880    66.0000    43.8690 h1         1 7I7       0.067700
     38 H18         -7.2540    64.6210    44.9640 h1         1 7I7       0.067700
     39 H19         -6.2420    67.3110    45.6750 hn         1 7I7       0.302500
     40 H20         -7.3480    68.1800    47.6710 hc         1 7I7       0.073700
     41 H21         -7.6520    66.9660    48.9140 hc         1 7I7       0.073700
     42 H22         -4.9050    67.5740    47.6770 h1         1 7I7       0.061200
     43 H23         -5.4890    68.1950    49.2180 h1         1 7I7       0.061200
     44 H24         -3.7430    65.7730    48.7380 hs         1 7I7       0.239800
@<TRIPOS>BOND
     1     1     2 2   
     2     2     3 1   
     3     2    21 1   
     4     3     4 1   
     5     3    22 1   
     6     4     5 1   
     7     4    23 1   
     8     4    24 1   
     9     5     6 1   
    10     5    25 1   
    11     5    26 1   
    12     6     7 1   
    13     7     8 1   
    14     7    27 1   
    15     7    28 1   
    16     8     9 1   
    17     8    29 1   
    18     8    30 1   
    19     9    10 1   
    20    10    11 1   
    21    10    31 1   
    22    10    32 1   
    23    11    12 1   
    24    11    33 1   
    25    11    34 1   
    26    12    13 1   
    27    13    14 1   
    28    13    35 1   
    29    13    36 1   
    30    14    15 1   
    31    14    37 1   
    32    14    38 1   
    33    15    16 1   
    34    15    39 1   
    35    16    17 2   
    36    16    18 1   
    37    18    19 1   
    38    18    40 1   
    39    18    41 1   
    40    19    20 1   
    41    19    42 1   
    42    19    43 1   
    43    20    44 1   
@<TRIPOS>SUBSTRUCTURE
     1 7I7         1 TEMP              0 ****  ****    0 ROOT
