@<TRIPOS>MOLECULE
7I7
   44    43     1     0     0
SMALL
No Charge or Current Charge


@<TRIPOS>ATOM
      1 OAA          1.9860    59.5330    50.0090 o          1 7I7      -0.600100
      2 CAB          1.4310    58.9730    49.0720 c          1 7I7       0.593900
      3 NAC          0.4310    59.5690    48.3320 ns         1 7I7      -0.519900
      4 CAD         -0.1030    60.9190    48.5690 c3         1 7I7       0.061000
      5 CAE         -1.0020    61.0020    49.8290 c3         1 7I7       0.137600
      6 OAF         -1.3840    62.3720    50.1040 os         1 7I7      -0.454000
      7 CAG         -2.2550    63.0200    49.1480 c3         1 7I7       0.116600
      8 CAH         -1.4220    63.9970    48.2740 c3         1 7I7       0.138600
      9 OAI         -2.2950    64.7900    47.4370 os         1 7I7      -0.478000
     10 CAJ         -2.9910    64.0750    46.3930 c3         1 7I7       0.145600
     11 CAK         -3.7260    65.1060    45.5120 c3         1 7I7       0.160600
     12 OAL         -4.6490    64.3930    44.6630 os         1 7I7      -0.460000
     13 CAM         -5.6000    65.2010    43.9360 c3         1 7I7       0.146600
     14 CAN         -6.8890    65.4080    44.7780 c3         1 7I7       0.070000
     15 NAO         -6.7690    66.3840    45.8760 ns         1 7I7      -0.514900
     16 CAP         -6.5910    66.0650    47.2070 c          1 7I7       0.604100
     17 OAQ         -6.5330    64.9090    47.6010 o          1 7I7      -0.585100
     18 CAR         -6.5170    67.2670    48.1490 c3         1 7I7      -0.153400
     19 CAS         -5.0650    67.6540    48.5010 c3         1 7I7       0.097600
     20 SAT         -4.1710    66.4360    49.5730 sh         1 7I7      -0.472800
     21 H1           1.6700    57.9500    48.7260 h5         1 7I7       0.011200
     22 H2           0.0420    59.0170    47.5740 hn         1 7I7       0.313500
     23 H3           0.7370    61.6180    48.6750 h1         1 7I7       0.061700
     24 H4          -0.6830    61.2100    47.6840 h1         1 7I7       0.061700
     25 H5          -1.8890    60.3700    49.6880 h1         1 7I7       0.055200
     26 H6          -0.4460    60.6000    50.6850 h1         1 7I7       0.055200
     27 H7          -3.0190    63.6000    49.6810 h1         1 7I7       0.050200
     28 H8          -2.7730    62.2840    48.5190 h1         1 7I7       0.050200
     29 H9          -0.6990    63.4450    47.6610 h1         1 7I7       0.057200
     30 H10         -0.8520    64.6580    48.9410 h1         1 7I7       0.057200
     31 H11         -3.7290    63.3840    46.8200 h1         1 7I7       0.045700
     32 H12         -2.2920    63.5010    45.7710 h1         1 7I7       0.045700
     33 H13         -2.9970    65.6630    44.9110 h1         1 7I7       0.030700
     34 H14         -4.2440    65.8200    46.1600 h1         1 7I7       0.030700
     35 H15         -5.1720    66.1690    43.6440 h1         1 7I7       0.046200
     36 H16         -5.8850    64.6770    43.0150 h1         1 7I7       0.046200
     37 H17         -7.6800    65.7640    44.1040 h1         1 7I7       0.067700
     38 H18         -7.2200    64.4400    45.1740 h1         1 7I7       0.067700
     39 H19         -6.8240    67.3710    45.6490 hn         1 7I7       0.302500
     40 H20         -6.9680    68.1390    47.6610 hc         1 7I7       0.073700
     41 H21         -7.0520    67.0350    49.0770 hc         1 7I7       0.073700
     42 H22         -4.4850    67.8070    47.5810 h1         1 7I7       0.061200
     43 H23         -5.0830    68.6100    49.0410 h1         1 7I7       0.061200
     44 H24         -3.6540    65.6870    48.5610 hs         1 7I7       0.239800
@<TRIPOS>BOND
     1     1     2 2   
     2     2     3 1   
     3     2    21 1   
     4     3     4 1   
     5     3    22 1   
     6     4     5 1   
     7     4    23 1   
     8     4    24 1   
     9     5     6 1   
    10     5    25 1   
    11     5    26 1   
    12     6     7 1   
    13     7     8 1   
    14     7    27 1   
    15     7    28 1   
    16     8     9 1   
    17     8    29 1   
    18     8    30 1   
    19     9    10 1   
    20    10    11 1   
    21    10    31 1   
    22    10    32 1   
    23    11    12 1   
    24    11    33 1   
    25    11    34 1   
    26    12    13 1   
    27    13    14 1   
    28    13    35 1   
    29    13    36 1   
    30    14    15 1   
    31    14    37 1   
    32    14    38 1   
    33    15    16 1   
    34    15    39 1   
    35    16    17 2   
    36    16    18 1   
    37    18    19 1   
    38    18    40 1   
    39    18    41 1   
    40    19    20 1   
    41    19    42 1   
    42    19    43 1   
    43    20    44 1   
@<TRIPOS>SUBSTRUCTURE
     1 7I7         1 TEMP              0 ****  ****    0 ROOT
