@<TRIPOS>MOLECULE
7I8
   39    39     1     0     0
SMALL
No Charge or Current Charge


@<TRIPOS>ATOM
      1 C1          11.5820    28.8010    85.2160 c6         1 7I8       0.274300
      2 O1          12.8900    28.6620    85.8230 os         1 7I8      -0.572400
      3 C2          10.8080    30.0770    85.7340 c6         1 7I8       0.189300
      4 C3           9.3340    30.0490    85.1890 c6         1 7I8       0.162300
      5 C4           9.3400    30.0230    83.6170 c6         1 7I8       0.203300
      6 C5          10.1930    28.8090    83.0770 c6         1 7I8       0.178300
      7 P6          14.6680    28.6610    81.8310 p5         1 7I8       1.323900
      8 O56         14.5080    27.8540    80.5890 o          1 7I8      -0.980500
      9 O46         14.1390    30.0360    81.6160 o          1 7I8      -0.980500
     10 O66         16.1220    28.7590    82.1380 o          1 7I8      -0.980500
     11 O36         13.9280    27.9320    83.0660 os         1 7I8      -0.590400
     12 O12         10.8900    31.6180    89.2980 o          1 7I8      -0.957833
     13 O2          10.8410    30.2310    87.1810 os         1 7I8      -0.602400
     14 O22         12.3110    32.2960    87.4460 o          1 7I8      -0.957833
     15 P2          10.9980    31.7020    87.8160 p5         1 7I8       1.336900
     16 O32          9.8950    32.5510    87.2950 o          1 7I8      -0.957833
     17 C6          11.6530    28.8180    83.6450 c6         1 7I8      -0.120700
     18 O3           8.5110    31.1220    85.7150 oh         1 7I8      -0.784000
     19 O4           7.9820    30.0240    83.0860 os         1 7I8      -0.646400
     20 O5          10.2060    28.7600    81.6400 oh         1 7I8      -0.756000
     21 P1          13.1980    27.4170    86.8120 p5         1 7I8       1.346900
     22 O11         13.0260    26.1160    86.1070 o          1 7I8      -0.976833
     23 O21         12.3080    27.4290    88.0060 o          1 7I8      -0.976833
     24 O31         14.6090    27.5140    87.2840 o          1 7I8      -0.976833
     25 P4           7.6290    30.8520    81.7560 p5         1 7I8       1.331900
     26 O14          6.1940    30.6440    81.4240 o          1 7I8      -0.958833
     27 O24          7.8870    32.3030    81.9580 o          1 7I8      -0.958833
     28 O34          8.4720    30.3310    80.6500 o          1 7I8      -0.958833
     29 H1          10.9830    27.9210    85.4980 h1         1 7I8      -0.010300
     30 H2          11.3050    30.9520    85.2890 h1         1 7I8       0.034700
     31 H3           8.8940    29.0970    85.5210 h1         1 7I8      -0.019300
     32 H4           9.8400    30.9450    83.2830 h1         1 7I8       0.036700
     33 H5           9.7150    27.8880    83.4400 h1         1 7I8      -0.035300
     34 H10         12.2110    27.4360    82.0210 h1         1 7I8       0.001200
     35 H11         12.3010    26.7280    83.6170 h1         1 7I8       0.001200
     36 H12         12.1280    29.7530    83.3280 hc         1 7I8       0.087700
     37 H13          9.1000    31.6580    86.3480 ho         1 7I8       0.505000
     38 H14          9.4790    29.3920    81.3120 ho         1 7I8       0.498000
     39 C06         12.5160    27.6440    83.0540 c3         1 7I8       0.248600
@<TRIPOS>BOND
     1     1     2 1   
     2     1     3 1   
     3     1    17 1   
     4     1    29 1   
     5     2    21 1   
     6     3     4 1   
     7     3    13 1   
     8     3    30 1   
     9     4     5 1   
    10     4    18 1   
    11     4    31 1   
    12     5     6 1   
    13     5    19 1   
    14     5    32 1   
    15     6    17 1   
    16     6    20 1   
    17     6    33 1   
    18     7     8 1   
    19     7     9 1   
    20     7    10 1   
    21     7    11 1   
    22    11    39 1   
    23    12    15 1   
    24    13    15 1   
    25    14    15 1   
    26    15    16 1   
    27    17    36 1   
    28    17    39 1   
    29    18    37 1   
    30    19    25 1   
    31    20    38 1   
    32    21    22 1   
    33    21    23 1   
    34    21    24 1   
    35    25    26 1   
    36    25    27 1   
    37    25    28 1   
    38    34    39 1   
    39    35    39 1   
@<TRIPOS>SUBSTRUCTURE
     1 7I8         1 TEMP              0 ****  ****    0 ROOT
