@<TRIPOS>MOLECULE
7I8
   39    39     1     0     0
SMALL
abcg2


@<TRIPOS>ATOM
      1 C1          11.5230    28.8580    85.2720 c6         1 7I8       0.274300
      2 O1          12.7880    28.7850    85.9080 os         1 7I8      -0.572400
      3 C2          10.7690    30.1170    85.7160 c6         1 7I8       0.189300
      4 C3           9.3950    30.2050    85.0430 c6         1 7I8       0.162300
      5 C4           9.4680    30.0890    83.5250 c6         1 7I8       0.203300
      6 C5          10.3040    28.8920    83.0700 c6         1 7I8       0.178300
      7 P6          14.5380    28.5630    81.6320 p5         1 7I8       1.323900
      8 O56         14.0700    27.5760    80.5620 o          1 7I8      -0.980500
      9 O46         13.9870    29.9750    81.4360 o          1 7I8      -0.980500
     10 O66         16.0400    28.5260    81.9010 o          1 7I8      -0.980500
     11 O36         13.9240    27.9970    83.0810 os         1 7I8      -0.590400
     12 O12         10.5540    31.0120    89.4450 o          1 7I8      -0.957833
     13 O2          10.5730    30.1110    87.1270 os         1 7I8      -0.602400
     14 O22         12.2800    31.9230    87.7830 o          1 7I8      -0.957833
     15 P2          10.8440    31.4890    88.0330 p5         1 7I8       1.336900
     16 O32          9.8150    32.5010    87.4930 o          1 7I8      -0.957833
     17 C6          11.6850    28.8760    83.7400 c6         1 7I8      -0.120700
     18 O3           8.7210    31.4110    85.3740 oh         1 7I8      -0.784000
     19 O4           8.1350    29.9630    83.0240 os         1 7I8      -0.646400
     20 O5          10.4500    28.8840    81.6550 oh         1 7I8      -0.756000
     21 P1          13.3000    27.4800    86.8390 p5         1 7I8       1.346900
     22 O11         12.5860    26.2480    86.2880 o          1 7I8      -0.976833
     23 O21         12.9160    27.7890    88.2850 o          1 7I8      -0.976833
     24 O31         14.8080    27.5020    86.6080 o          1 7I8      -0.976833
     25 P4           7.6140    30.7900    81.6650 p5         1 7I8       1.331900
     26 O14          6.2760    30.1280    81.3900 o          1 7I8      -0.958833
     27 O24          7.5360    32.2650    82.0260 o          1 7I8      -0.958833
     28 O34          8.6890    30.5040    80.5980 o          1 7I8      -0.958833
     29 H1          10.9310    27.9800    85.5530 h1         1 7I8      -0.010300
     30 H2          11.3710    30.9880    85.4340 h1         1 7I8       0.034700
     31 H3           8.8080    29.3490    85.4090 h1         1 7I8      -0.019300
     32 H4           9.9290    31.0040    83.1350 h1         1 7I8       0.036700
     33 H5           9.7590    27.9850    83.3770 h1         1 7I8      -0.035300
     34 H10         12.1420    27.3800    82.2530 h1         1 7I8       0.001200
     35 H11         12.4570    26.8750    83.9250 h1         1 7I8       0.001200
     36 H12         12.2010    29.7970    83.4530 hc         1 7I8       0.087700
     37 H13          9.1160    31.8050    86.2080 ho         1 7I8       0.505000
     38 H14          9.7570    29.4800    81.2420 ho         1 7I8       0.498000
     39 C06         12.5330    27.7030    83.2180 c3         1 7I8       0.248600
@<TRIPOS>BOND
     1     1     2 1   
     2     1     3 1   
     3     1    17 1   
     4     1    29 1   
     5     2    21 1   
     6     3     4 1   
     7     3    13 1   
     8     3    30 1   
     9     4     5 1   
    10     4    18 1   
    11     4    31 1   
    12     5     6 1   
    13     5    19 1   
    14     5    32 1   
    15     6    17 1   
    16     6    20 1   
    17     6    33 1   
    18     7     8 1   
    19     7     9 1   
    20     7    10 1   
    21     7    11 1   
    22    11    39 1   
    23    12    15 1   
    24    13    15 1   
    25    14    15 1   
    26    15    16 1   
    27    17    36 1   
    28    17    39 1   
    29    18    37 1   
    30    19    25 1   
    31    20    38 1   
    32    21    22 1   
    33    21    23 1   
    34    21    24 1   
    35    25    26 1   
    36    25    27 1   
    37    25    28 1   
    38    34    39 1   
    39    35    39 1   
@<TRIPOS>SUBSTRUCTURE
     1 7I8         1 TEMP              0 ****  ****    0 ROOT
