@<TRIPOS>MOLECULE
7IA
   27    28     1     0     0
SMALL
bcc


@<TRIPOS>ATOM
      1 C           -2.5010     0.9390    -0.1230 c3         1 7IA      -0.128300
      2 N           -0.4240    -2.4990     0.0590 ns         1 7IA      -0.471400
      3 O           -4.8210     0.4570    -0.1890 o          1 7IA      -0.810300
      4 S           -2.4720    -0.8700    -0.0620 ss         1 7IA      -0.126300
      5 C1          -3.9780     1.3720    -0.1910 c          1 7IA       0.944600
      6 N1           0.1240    -0.2420    -0.0240 nc         1 7IA      -0.684300
      7 O1          -4.1690     2.5970    -0.2420 o          1 7IA      -0.810300
      8 C2          -0.7570    -1.1880    -0.0040 cd         1 7IA       0.502800
      9 C3           0.8880    -2.9530     0.1270 c          1 7IA       0.708700
     10 C4           1.8490    -1.8900     0.1170 cd         1 7IA      -0.356200
     11 C5           1.4400    -0.5910     0.0290 cc         1 7IA       0.268400
     12 C6           2.3910     0.5400     0.0030 ca         1 7IA      -0.050800
     13 C7           1.9420     1.8330     0.2760 ca         1 7IA      -0.092500
     14 C8           2.8230     2.9030     0.2720 ca         1 7IA      -0.146000
     15 C9           4.1660     2.7020    -0.0180 ca         1 7IA      -0.125000
     16 C10          4.6210     1.4210    -0.3040 ca         1 7IA      -0.146000
     17 C11          3.7420     0.3500    -0.2950 ca         1 7IA      -0.092500
     18 H           -2.0140     1.3460     0.7630 h1         1 7IA       0.062700
     19 HA          -1.9470     1.2890    -0.9940 h1         1 7IA       0.062700
     20 HN          -1.1530    -3.2040     0.0670 hn         1 7IA       0.335500
     21 H4           2.8920    -2.1620     0.1950 ha         1 7IA       0.148000
     22 H7           0.8960     1.9980     0.4980 ha         1 7IA       0.148500
     23 H8           2.4590     3.8970     0.4940 ha         1 7IA       0.125500
     24 H9           4.8540     3.5370    -0.0260 ha         1 7IA       0.120000
     25 H10          5.6640     1.2550    -0.5420 ha         1 7IA       0.125500
     26 H11          4.1180    -0.6350    -0.5410 ha         1 7IA       0.148500
     27 O2           1.1250    -4.1500     0.1910 o          1 7IA      -0.660500
@<TRIPOS>BOND
     1     1     4 1   
     2     1     5 1   
     3     1    18 1   
     4     1    19 1   
     5     2     8 1   
     6     2     9 1   
     7     2    20 1   
     8     3     5 1   
     9     4     8 1   
    10     5     7 1   
    11     6     8 2   
    12     6    11 1   
    13     9    10 1   
    14     9    27 2   
    15    10    11 2   
    16    10    21 1   
    17    11    12 1   
    18    12    13 ar  
    19    12    17 ar  
    20    13    14 ar  
    21    13    22 1   
    22    14    15 ar  
    23    14    23 1   
    24    15    16 ar  
    25    15    24 1   
    26    16    17 ar  
    27    16    25 1   
    28    17    26 1   
@<TRIPOS>SUBSTRUCTURE
     1 7IA         1 TEMP              0 ****  ****    0 ROOT
