@<TRIPOS>MOLECULE
7IA
   27    28     1     0     0
SMALL
No Charge or Current Charge


@<TRIPOS>ATOM
      1 C           -2.6210     0.9090    -0.2440 c3         1 7IA      -0.080400
      2 N           -0.3610    -2.5790     0.0160 ns         1 7IA      -0.404400
      3 O           -4.6870     1.6100     0.6860 o          1 7IA      -0.705000
      4 S           -2.5020    -0.9460    -0.1770 ss         1 7IA      -0.174200
      5 C1          -4.0740     1.3920    -0.3500 c          1 7IA       0.734000
      6 N1           0.0520    -0.2400    -0.0430 nc         1 7IA      -0.684300
      7 O1          -4.5530     1.5410    -1.4650 o          1 7IA      -0.705000
      8 C2          -0.7680    -1.2840    -0.0580 cd         1 7IA       0.502800
      9 C3           0.9300    -2.9600     0.1250 c          1 7IA       0.566200
     10 C4           1.8430    -1.8290     0.1410 cd         1 7IA      -0.406200
     11 C5           1.3990    -0.5290     0.0440 cc         1 7IA       0.268400
     12 C6           2.3960     0.5540     0.0890 ca         1 7IA      -0.050800
     13 C7           2.0610     1.8020     0.6620 ca         1 7IA      -0.074500
     14 C8           2.9870     2.8600     0.6740 ca         1 7IA      -0.128000
     15 C9           4.2540     2.6930     0.0950 ca         1 7IA      -0.107000
     16 C10          4.5900     1.4710    -0.5060 ca         1 7IA      -0.128000
     17 C11          3.6660     0.4110    -0.5180 ca         1 7IA      -0.074500
     18 H           -2.1770     1.3360     0.6640 h1         1 7IA       0.062700
     19 HA          -2.0660     1.2800    -1.1140 h1         1 7IA       0.062700
     20 HN          -1.0430    -3.3220    -0.0000 hn         1 7IA       0.335500
     21 H4           2.8870    -2.0900     0.2520 ha         1 7IA       0.198000
     22 H7           1.0810     1.9490     1.1120 ha         1 7IA       0.130500
     23 H8           2.7180     3.8100     1.1310 ha         1 7IA       0.107500
     24 H9           4.9690     3.5130     0.1020 ha         1 7IA       0.102000
     25 H10          5.5650     1.3450    -0.9710 ha         1 7IA       0.107500
     26 H11          3.9390    -0.5170    -1.0150 ha         1 7IA       0.130500
     27 O2           1.2740    -4.1270     0.2050 o          1 7IA      -0.585000
@<TRIPOS>BOND
     1     1     4 1   
     2     1     5 1   
     3     1    18 1   
     4     1    19 1   
     5     2     8 1   
     6     2     9 1   
     7     2    20 1   
     8     3     5 1   
     9     4     8 1   
    10     5     7 1   
    11     6     8 2   
    12     6    11 1   
    13     9    10 1   
    14     9    27 2   
    15    10    11 2   
    16    10    21 1   
    17    11    12 1   
    18    12    13 ar  
    19    12    17 ar  
    20    13    14 ar  
    21    13    22 1   
    22    14    15 ar  
    23    14    23 1   
    24    15    16 ar  
    25    15    24 1   
    26    16    17 ar  
    27    16    25 1   
    28    17    26 1   
@<TRIPOS>SUBSTRUCTURE
     1 7IA         1 TEMP              0 ****  ****    0 ROOT
