@<TRIPOS>MOLECULE
7IB
   32    33     1     0     0
SMALL
bcc


@<TRIPOS>ATOM
      1 OZ1          2.0660    59.0590    36.4860 o          1 7IB      -0.854300
      2 CE           1.0940    58.4490    36.9770 c          1 7IB       0.928600
      3 OZ2          0.4440    57.5310    36.4350 o          1 7IB      -0.854300
      4 CD           0.6220    58.8890    38.3770 c3         1 7IB      -0.202400
      5 CG           1.7020    59.4690    39.2770 c3         1 7IB      -0.056400
      6 CB           1.1570    59.8750    40.6500 c3         1 7IB      -0.029100
      7 C5           2.2210    60.3620    41.5940 ca         1 7IB      -0.085300
      8 C6           3.0950    59.4580    42.2570 ca         1 7IB      -0.115300
      9 C8           3.0090    58.0510    42.1320 ca         1 7IB      -0.127000
     10 C9           3.8920    57.2450    42.7920 ca         1 7IB      -0.207300
     11 C10          4.9050    57.8240    43.5900 ca         1 7IB       0.359800
     12 C            5.9230    56.9330    44.3140 c          1 7IB       0.827100
     13 O            5.7180    55.7070    44.2220 o          1 7IB      -0.817800
     14 O1           6.8450    57.5080    44.9130 o          1 7IB      -0.817800
     15 N11          4.9980    59.1220    43.7300 nb         1 7IB      -0.670000
     16 C7           4.1270    59.9360    43.1030 ca         1 7IB       0.351600
     17 C2           4.2880    61.3440    43.3150 ca         1 7IB       0.105300
     18 N            5.2500    61.7760    44.1910 nv         1 7IB      -0.829200
     19 C3           3.4290    62.1980    42.6560 ca         1 7IB      -0.243000
     20 C4           2.4200    61.7030    41.8140 ca         1 7IB      -0.115000
     21 H2          -0.1710    59.6370    38.2440 hc         1 7IB       0.009200
     22 H3           0.1400    58.0440    38.8780 hc         1 7IB       0.009200
     23 H4           2.5070    58.7400    39.4040 hc         1 7IB       0.046200
     24 H5           2.1590    60.3420    38.8050 hc         1 7IB       0.046200
     25 H6           0.4130    60.6650    40.5130 hc         1 7IB       0.024700
     26 H7           0.6130    59.0320    41.0880 hc         1 7IB       0.024700
     27 H8           2.2380    57.6080    41.5150 ha         1 7IB       0.132000
     28 H9           3.8280    56.1700    42.7030 ha         1 7IB       0.153000
     29 H11          5.9770    61.1060    44.3830 hn         1 7IB       0.399800
     30 H12          5.5900    62.7140    44.0540 hn         1 7IB       0.399800
     31 H13          3.5290    63.2690    42.7920 ha         1 7IB       0.102000
     32 H14          1.7710    62.4190    41.3200 ha         1 7IB       0.106000
@<TRIPOS>BOND
     1     1     2 1   
     2     2     3 1   
     3     2     4 1   
     4     4     5 1   
     5     4    21 1   
     6     4    22 1   
     7     5     6 1   
     8     5    23 1   
     9     5    24 1   
    10     6     7 1   
    11     6    25 1   
    12     6    26 1   
    13     7     8 ar  
    14     7    20 ar  
    15     8     9 ar  
    16     8    16 ar  
    17     9    10 ar  
    18     9    27 1   
    19    10    11 ar  
    20    10    28 1   
    21    11    12 1   
    22    11    15 ar  
    23    12    13 1   
    24    12    14 1   
    25    15    16 ar  
    26    16    17 ar  
    27    17    18 1   
    28    17    19 ar  
    29    18    29 1   
    30    18    30 1   
    31    19    20 ar  
    32    19    31 1   
    33    20    32 1   
@<TRIPOS>SUBSTRUCTURE
     1 7IB         1 TEMP              0 ****  ****    0 ROOT
