@<TRIPOS>MOLECULE
7IB
   32    33     1     0     0
SMALL
No Charge or Current Charge


@<TRIPOS>ATOM
      1 OZ1          1.1530    59.4990    36.1090 o          1 7IB      -0.749000
      2 CE           1.0890    58.6110    36.9460 c          1 7IB       0.718000
      3 OZ2          1.4990    57.4760    36.7580 o          1 7IB      -0.749000
      4 CD           0.5150    58.9580    38.3330 c3         1 7IB      -0.202400
      5 CG           1.6450    59.4520    39.2700 c3         1 7IB      -0.056400
      6 CB           1.1440    59.8340    40.6820 c3         1 7IB      -0.029100
      7 C5           2.2760    60.3110    41.5970 ca         1 7IB      -0.085300
      8 C6           3.1450    59.4170    42.2840 ca         1 7IB      -0.050000
      9 C8           3.0130    58.0170    42.1520 ca         1 7IB      -0.109000
     10 C9           3.8930    57.1740    42.8460 ca         1 7IB      -0.124000
     11 C10          4.9020    57.7210    43.6660 ca         1 7IB       0.294500
     12 C            5.8710    56.7690    44.4290 c          1 7IB       0.616500
     13 O            5.7340    55.5560    44.3040 o          1 7IB      -0.712500
     14 O1           6.7540    57.2430    45.1400 o          1 7IB      -0.712500
     15 N11          5.0300    59.0790    43.7910 nb         1 7IB      -0.670000
     16 C7           4.1810    59.9200    43.1250 ca         1 7IB       0.221000
     17 C2           4.3220    61.3400    43.2570 ca         1 7IB       0.309000
     18 N            5.2990    61.9130    44.0510 nv         1 7IB      -1.078000
     19 C3           3.4650    62.2070    42.5690 ca         1 7IB      -0.225000
     20 C4           2.4520    61.6980    41.7480 ca         1 7IB      -0.097000
     21 H2          -0.1970    59.7900    38.2570 hc         1 7IB       0.009200
     22 H3           0.0980    58.0640    38.8120 hc         1 7IB       0.009200
     23 H4           2.4110    58.6720    39.3530 hc         1 7IB       0.046200
     24 H5           2.1320    60.3260    38.8190 hc         1 7IB       0.046200
     25 H6           0.3900    60.6240    40.5790 hc         1 7IB       0.024700
     26 H7           0.6080    58.9890    41.1310 hc         1 7IB       0.024700
     27 H8           2.2490    57.5660    41.5250 ha         1 7IB       0.114000
     28 H9           3.7930    56.0970    42.7460 ha         1 7IB       0.135000
     29 H11          6.0160    61.2940    44.4260 hn         1 7IB       0.455000
     30 H12          5.5400    62.8930    43.9260 hn         1 7IB       0.455000
     31 H13          3.5780    63.2830    42.6690 ha         1 7IB       0.084000
     32 H14          1.7980    62.3910    41.2230 ha         1 7IB       0.088000
@<TRIPOS>BOND
     1     1     2 1   
     2     2     3 1   
     3     2     4 1   
     4     4     5 1   
     5     4    21 1   
     6     4    22 1   
     7     5     6 1   
     8     5    23 1   
     9     5    24 1   
    10     6     7 1   
    11     6    25 1   
    12     6    26 1   
    13     7     8 ar  
    14     7    20 ar  
    15     8     9 ar  
    16     8    16 ar  
    17     9    10 ar  
    18     9    27 1   
    19    10    11 ar  
    20    10    28 1   
    21    11    12 1   
    22    11    15 ar  
    23    12    13 1   
    24    12    14 1   
    25    15    16 ar  
    26    16    17 ar  
    27    17    18 1   
    28    17    19 ar  
    29    18    29 1   
    30    18    30 1   
    31    19    20 ar  
    32    19    31 1   
    33    20    32 1   
@<TRIPOS>SUBSTRUCTURE
     1 7IB         1 TEMP              0 ****  ****    0 ROOT
