@<TRIPOS>MOLECULE
7IC
   44    47     1     0     0
SMALL
abcg2


@<TRIPOS>ATOM
      1 C10        -12.0120    25.2620    -2.5230 ca         1 7IC      -0.089800
      2 C4         -12.1010    27.3980    -0.1740 c3         1 7IC      -0.031400
      3 C5         -10.8040    26.8760    -0.8270 c3         1 7IC       0.090800
      4 C6         -11.0730    26.3000    -2.1860 cc         1 7IC      -0.160400
      5 C7         -10.5590    26.7790    -3.3760 cd         1 7IC       0.033700
      6 C9         -12.0270    25.1620    -3.9370 ca         1 7IC      -0.034200
      7 C11        -12.8390    24.3960    -1.7900 ca         1 7IC      -0.063000
      8 C12        -13.6270    23.4820    -2.4660 ca         1 7IC      -0.133000
      9 C13        -13.6290    23.3870    -3.8760 ca         1 7IC      -0.054300
     10 C14        -12.8180    24.2360    -4.6160 ca         1 7IC      -0.125000
     11 C15        -14.5020    22.3650    -4.5540 c3         1 7IC      -0.046800
     12 C16         -9.5810    27.8380    -3.6290 ca         1 7IC      -0.052800
     13 C17         -9.7730    28.7460    -4.6780 ca         1 7IC      -0.090500
     14 C18         -8.8500    29.7570    -4.9170 ca         1 7IC      -0.108500
     15 C19         -7.7220    29.8800    -4.1110 ca         1 7IC      -0.097000
     16 C20         -7.5180    28.9780    -3.0710 ca         1 7IC      -0.108500
     17 C21         -8.4340    27.9620    -2.8340 ca         1 7IC      -0.090500
     18 C22        -10.1110    25.9130     0.1060 cc         1 7IC      -0.211300
     19 C23         -9.7020    24.6330    -0.1450 cd         1 7IC      -0.107000
     20 C24         -9.0310    24.0270     0.9560 cd         1 7IC      -0.134000
     21 C25         -8.9350    24.8560     2.0350 cc         1 7IC      -0.222000
     22 N8         -11.1530    26.1010    -4.4240 na         1 7IC      -0.219700
     23 O1         -13.8600    28.2040    -1.4930 o          1 7IC      -0.396000
     24 O3         -12.0840    29.4200    -1.3360 o          1 7IC      -0.396000
     25 S26         -9.6600    26.3850     1.7160 ss         1 7IC       0.157000
     26 H1         -12.8420    26.6230    -0.0180 h1         1 7IC       0.094700
     27 H2         -11.8930    27.9220     0.7580 h1         1 7IC       0.094700
     28 H3         -10.1630    27.7490    -0.9500 hc         1 7IC       0.088700
     29 H5         -12.8530    24.4240    -0.7080 ha         1 7IC       0.113000
     30 H6         -14.2610    22.8100    -1.9000 ha         1 7IC       0.111000
     31 H7         -12.8000    24.1800    -5.6980 ha         1 7IC       0.114000
     32 H8         -14.2490    21.3520    -4.2290 hc         1 7IC       0.042700
     33 H9         -15.5560    22.5240    -4.3120 hc         1 7IC       0.042700
     34 H10        -14.3930    22.4100    -5.6380 hc         1 7IC       0.042700
     35 H11        -10.6580    28.6680    -5.2970 ha         1 7IC       0.118500
     36 H12         -9.0180    30.4530    -5.7280 ha         1 7IC       0.116500
     37 H13         -7.0060    30.6710    -4.2950 ha         1 7IC       0.116000
     38 H14         -6.6350    29.0590    -2.4480 ha         1 7IC       0.116500
     39 H15         -8.2500    27.2440    -2.0460 ha         1 7IC       0.118500
     40 H16         -9.8760    24.1390    -1.0890 ha         1 7IC       0.149000
     41 H17         -8.6400    23.0200     0.9420 ha         1 7IC       0.137000
     42 H18         -8.4850    24.6610     2.9960 h4         1 7IC       0.152000
     43 H4         -10.8860    26.2000    -5.3900 hn         1 7IC       0.354000
     44 N2         -12.7360    28.4230    -1.0700 no         1 7IC       0.569000
@<TRIPOS>BOND
     1     1     4 1   
     2     1     6 ar  
     3     1     7 ar  
     4     2     3 1   
     5     2    26 1   
     6     2    27 1   
     7     2    44 1   
     8     3     4 1   
     9     3    18 1   
    10     3    28 1   
    11     4     5 2   
    12     5    12 1   
    13     5    22 1   
    14     6    10 ar  
    15     6    22 1   
    16     7     8 ar  
    17     7    29 1   
    18     8     9 ar  
    19     8    30 1   
    20     9    10 ar  
    21     9    11 1   
    22    10    31 1   
    23    11    32 1   
    24    11    33 1   
    25    11    34 1   
    26    12    13 ar  
    27    12    17 ar  
    28    13    14 ar  
    29    13    35 1   
    30    14    15 ar  
    31    14    36 1   
    32    15    16 ar  
    33    15    37 1   
    34    16    17 ar  
    35    16    38 1   
    36    17    39 1   
    37    18    19 2   
    38    18    25 1   
    39    19    20 1   
    40    19    40 1   
    41    20    21 2   
    42    20    41 1   
    43    21    25 1   
    44    21    42 1   
    45    22    43 1   
    46    23    44 1   
    47    24    44 1   
@<TRIPOS>SUBSTRUCTURE
     1 7IC         1 TEMP              0 ****  ****    0 ROOT
