@<TRIPOS>MOLECULE
7IC
   44    47     1     0     0
SMALL
No Charge or Current Charge


@<TRIPOS>ATOM
      1 C10        -12.0570    25.3170    -2.5710 ca         1 7IC      -0.089800
      2 C4         -12.2670    27.2710    -0.0880 c3         1 7IC      -0.031400
      3 C5         -10.9350    26.8920    -0.7810 c3         1 7IC       0.090800
      4 C6         -11.1520    26.3780    -2.1960 cc         1 7IC      -0.160400
      5 C7         -10.6650    26.9030    -3.4060 cd         1 7IC       0.033700
      6 C9         -12.1300    25.2900    -3.9320 ca         1 7IC      -0.034200
      7 C11        -12.7580    24.3880    -1.7850 ca         1 7IC      -0.063000
      8 C12        -13.5730    23.4420    -2.4390 ca         1 7IC      -0.133000
      9 C13        -13.6650    23.4240    -3.8520 ca         1 7IC      -0.054300
     10 C14        -12.9280    24.3590    -4.6110 ca         1 7IC      -0.125000
     11 C15        -14.5460    22.3980    -4.5480 c3         1 7IC      -0.046800
     12 C16         -9.5740    27.8830    -3.6250 ca         1 7IC      -0.052800
     13 C17         -9.5180    28.6040    -4.8400 ca         1 7IC      -0.090500
     14 C18         -8.4900    29.5320    -5.0820 ca         1 7IC      -0.108500
     15 C19         -7.4880    29.7390    -4.1230 ca         1 7IC      -0.097000
     16 C20         -7.5100    29.0080    -2.9260 ca         1 7IC      -0.108500
     17 C21         -8.5400    28.0830    -2.6810 ca         1 7IC      -0.090500
     18 C22        -10.1020    25.9650     0.0750 cc         1 7IC      -0.211300
     19 C23         -9.6280    24.7100    -0.2260 cd         1 7IC      -0.107000
     20 C24         -8.8510    24.1280     0.8100 cd         1 7IC      -0.134000
     21 C25         -8.7130    24.9330     1.9100 cc         1 7IC      -0.222000
     22 N8         -11.3070    26.2470    -4.4830 na         1 7IC      -0.219700
     23 O1         -14.2070    27.8620    -1.3110 o          1 7IC      -0.396000
     24 O3         -12.6810    29.4040    -1.0270 o          1 7IC      -0.396000
     25 S26         -9.5500    26.4630     1.6760 ss         1 7IC       0.157000
     26 H1         -12.8980    26.3970     0.0940 h1         1 7IC       0.094700
     27 H2         -12.0840    27.7850     0.8620 h1         1 7IC       0.094700
     28 H3         -10.3990    27.8450    -0.8430 hc         1 7IC       0.088700
     29 H5         -12.6690    24.3800    -0.7030 ha         1 7IC       0.113000
     30 H6         -14.1280    22.7170    -1.8490 ha         1 7IC       0.111000
     31 H7         -12.9710    24.3540    -5.6980 ha         1 7IC       0.114000
     32 H8         -14.5870    21.4590    -3.9830 hc         1 7IC       0.042700
     33 H9         -15.5720    22.7720    -4.6520 hc         1 7IC       0.042700
     34 H10        -14.1710    22.1620    -5.5510 hc         1 7IC       0.042700
     35 H11        -10.2880    28.4720    -5.5950 ha         1 7IC       0.118500
     36 H12         -8.4710    30.0900    -6.0160 ha         1 7IC       0.116500
     37 H13         -6.6900    30.4540    -4.3120 ha         1 7IC       0.116000
     38 H14         -6.7200    29.1470    -2.1910 ha         1 7IC       0.116500
     39 H15         -8.4900    27.4890    -1.7750 ha         1 7IC       0.118500
     40 H16         -9.8250    24.2050    -1.1670 ha         1 7IC       0.149000
     41 H17         -8.4060    23.1400     0.7360 ha         1 7IC       0.137000
     42 H18         -8.1800    24.7480     2.8340 h4         1 7IC       0.152000
     43 H4         -11.1270    26.3930    -5.4690 hn         1 7IC       0.354000
     44 N2         -13.0940    28.2420    -0.9300 no         1 7IC       0.569000
@<TRIPOS>BOND
     1     1     4 1   
     2     1     6 ar  
     3     1     7 ar  
     4     2     3 1   
     5     2    26 1   
     6     2    27 1   
     7     2    44 1   
     8     3     4 1   
     9     3    18 1   
    10     3    28 1   
    11     4     5 2   
    12     5    12 1   
    13     5    22 1   
    14     6    10 ar  
    15     6    22 1   
    16     7     8 ar  
    17     7    29 1   
    18     8     9 ar  
    19     8    30 1   
    20     9    10 ar  
    21     9    11 1   
    22    10    31 1   
    23    11    32 1   
    24    11    33 1   
    25    11    34 1   
    26    12    13 ar  
    27    12    17 ar  
    28    13    14 ar  
    29    13    35 1   
    30    14    15 ar  
    31    14    36 1   
    32    15    16 ar  
    33    15    37 1   
    34    16    17 ar  
    35    16    38 1   
    36    17    39 1   
    37    18    19 2   
    38    18    25 1   
    39    19    20 1   
    40    19    40 1   
    41    20    21 2   
    42    20    41 1   
    43    21    25 1   
    44    21    42 1   
    45    22    43 1   
    46    23    44 1   
    47    24    44 1   
@<TRIPOS>SUBSTRUCTURE
     1 7IC         1 TEMP              0 ****  ****    0 ROOT
