@<TRIPOS>MOLECULE
7IE
   30    31     1     0     0
SMALL
bcc


@<TRIPOS>ATOM
      1 C10         55.9070   -14.7400    -2.4440 ca         1 7IE       0.514300
      2 C9          57.2480   -15.0690    -2.5710 ca         1 7IE      -0.226300
      3 C8          58.0920   -14.6620    -1.5540 ca         1 7IE      -0.079000
      4 C7          57.5840   -13.9520    -0.4710 ca         1 7IE      -0.231600
      5 C3          57.4780   -14.4130     2.5760 c2         1 7IE       0.142800
      6 C4          57.7440   -11.9940     2.4800 c3         1 7IE       0.163800
      7 C5          59.0340   -11.5560     3.1480 c3         1 7IE       0.392900
      8 C6          58.5060   -13.4700     0.6210 c3         1 7IE       0.280100
      9 C1          57.0260   -16.5240     3.2660 c          1 7IE       0.743800
     10 C2          56.7480   -14.3580     3.8890 c5         1 7IE       0.150600
     11 CL1         54.8030   -15.2270    -3.6920 cl         1 7IE      -0.159000
     12 N2          55.3980   -14.0790    -1.4350 nb         1 7IE      -0.654000
     13 C11         56.2220   -13.6910    -0.4660 ca         1 7IE       0.437200
     14 N1          57.8520   -13.3140     1.9040 nh         1 7IE      -0.668400
     15 F2          58.8070   -10.3960     3.8190 f          1 7IE      -0.236300
     16 F1          59.4340   -12.4770     4.0680 f          1 7IE      -0.236300
     17 O2          56.5260   -15.7090     4.2320 os         1 7IE      -0.402900
     18 C12         57.6160   -15.7160     2.2280 ce         1 7IE      -0.376200
     19 O1          56.9310   -17.7230     3.3720 o          1 7IE      -0.567500
     20 H9          57.6140   -15.6240    -3.4210 ha         1 7IE       0.162000
     21 H8          59.1470   -14.9030    -1.6030 ha         1 7IE       0.142000
     22 H3          57.4990   -11.2760     1.6950 h1         1 7IE       0.081200
     23 H4          56.9250   -11.9530     3.2010 h1         1 7IE       0.081200
     24 H5          59.8560   -11.4020     2.4470 h2         1 7IE       0.064700
     25 H6          59.3550   -14.1540     0.7110 h1         1 7IE       0.062200
     26 H7          58.9260   -12.5040     0.3330 h1         1 7IE       0.062200
     27 H1          57.3270   -13.8690     4.6730 h1         1 7IE       0.078200
     28 H2          55.7900   -13.8390     3.7940 h1         1 7IE       0.078200
     29 H10         55.7630   -13.1520     0.3550 h4         1 7IE       0.026100
     30 H11         58.0780   -16.1320     1.3470 ha         1 7IE       0.175000
@<TRIPOS>BOND
     1     1     2 ar  
     2     1    11 1   
     3     1    12 ar  
     4     2     3 ar  
     5     2    20 1   
     6     3     4 ar  
     7     3    21 1   
     8     4     8 1   
     9     4    13 ar  
    10     5    10 1   
    11     5    14 1   
    12     5    18 2   
    13     6     7 1   
    14     6    14 1   
    15     6    22 1   
    16     6    23 1   
    17     7    15 1   
    18     7    16 1   
    19     7    24 1   
    20     8    14 1   
    21     8    25 1   
    22     8    26 1   
    23     9    17 1   
    24     9    18 1   
    25     9    19 2   
    26    10    17 1   
    27    10    27 1   
    28    10    28 1   
    29    12    13 ar  
    30    13    29 1   
    31    18    30 1   
@<TRIPOS>SUBSTRUCTURE
     1 7IE         1 TEMP              0 ****  ****    0 ROOT
