@<TRIPOS>MOLECULE
7IE
   30    31     1     0     0
SMALL
No Charge or Current Charge


@<TRIPOS>ATOM
      1 C10         55.8410   -14.7460    -2.4630 ca         1 7IE       0.449000
      2 C9          57.1200   -15.3200    -2.3980 ca         1 7IE      -0.143000
      3 C8          58.0190   -14.8700    -1.4180 ca         1 7IE      -0.061000
      4 C7          57.5910   -13.8590    -0.5380 ca         1 7IE      -0.166300
      5 C3          57.5250   -14.4920     2.5280 c2         1 7IE       0.142800
      6 C4          57.7460   -11.9590     2.5280 c3         1 7IE       0.163800
      7 C5          58.9880   -11.4880     3.3240 c3         1 7IE       0.150300
      8 C6          58.5090   -13.3230     0.5490 c3         1 7IE       0.280100
      9 C1          57.1260   -16.6570     3.1760 c          1 7IE       0.668300
     10 C2          56.8050   -14.4750     3.8740 c5         1 7IE       0.173800
     11 Cl1         54.6870   -15.2810    -3.6760 cl         1 7IE      -0.159000
     12 N2          55.4200   -13.7720    -1.6270 nb         1 7IE      -0.654000
     13 C11         56.2890   -13.3430    -0.6810 ca         1 7IE       0.371900
     14 N1          57.8810   -13.3030     1.8910 nh         1 7IE      -0.668400
     15 F2          58.7840   -10.2360     3.7960 f          1 7IE      -0.115000
     16 F1          59.2110   -12.2870     4.3920 f          1 7IE      -0.115000
     17 O2          56.5990   -15.8900     4.1820 os         1 7IE      -0.426100
     18 C12         57.6850   -15.7590     2.1750 ce         1 7IE      -0.426200
     19 O1          57.1190   -17.8760     3.1340 o          1 7IE      -0.492000
     20 H9          57.4030   -16.1000    -3.0990 ha         1 7IE       0.144000
     21 H8          59.0180   -15.2980    -1.3460 ha         1 7IE       0.124000
     22 H3          57.5670   -11.2070     1.7470 h1         1 7IE       0.081200
     23 H4          56.8620   -11.9200     3.1780 h1         1 7IE       0.081200
     24 H5          59.8760   -11.4890     2.6820 h2         1 7IE       0.064700
     25 H6          59.4200   -13.9350     0.5900 h1         1 7IE       0.062200
     26 H7          58.8280   -12.3130     0.2570 h1         1 7IE       0.062200
     27 H1          57.4030   -14.0170     4.6710 h1         1 7IE       0.078200
     28 H2          55.8310   -13.9700     3.8190 h1         1 7IE       0.078200
     29 H10         55.9250   -12.5570    -0.0200 h4         1 7IE       0.026100
     30 H11         58.1570   -16.1360     1.2740 ha         1 7IE       0.225000
@<TRIPOS>BOND
     1     1     2 ar  
     2     1    11 1   
     3     1    12 ar  
     4     2     3 ar  
     5     2    20 1   
     6     3     4 ar  
     7     3    21 1   
     8     4     8 1   
     9     4    13 ar  
    10     5    10 1   
    11     5    14 1   
    12     5    18 2   
    13     6     7 1   
    14     6    14 1   
    15     6    22 1   
    16     6    23 1   
    17     7    15 1   
    18     7    16 1   
    19     7    24 1   
    20     8    14 1   
    21     8    25 1   
    22     8    26 1   
    23     9    17 1   
    24     9    18 1   
    25     9    19 2   
    26    10    17 1   
    27    10    27 1   
    28    10    28 1   
    29    12    13 ar  
    30    13    29 1   
    31    18    30 1   
@<TRIPOS>SUBSTRUCTURE
     1 7IE         1 TEMP              0 ****  ****    0 ROOT
