@<TRIPOS>MOLECULE
7IG
   45    47     1     0     0
SMALL
bcc


@<TRIPOS>ATOM
      1 C1           4.3620    -1.4110    -0.1550 ca         1 7IG       0.762200
      2 N1           5.6870    -1.4770    -0.2390 nb         1 7IG      -0.861000
      3 C2           6.3490    -0.3220    -0.2290 ca         1 7IG       0.934900
      4 N2           5.8120     0.8910    -0.1490 nb         1 7IG      -0.817000
      5 C3           4.4790     0.9540    -0.0700 ca         1 7IG       0.532600
      6 C4           3.6760    -0.1740    -0.0660 cp         1 7IG      -0.397600
      7 N3           3.6940    -2.5760    -0.1390 nv         1 7IG      -0.973500
      8 N4           7.7030    -0.3960    -0.2730 nv         1 7IG      -0.941500
      9 C5           3.9110     2.3390     0.0410 c3         1 7IG      -0.133700
     10 C6           4.1510     2.9350     1.4270 c3         1 7IG      -0.082100
     11 C7           0.1620     0.1840     1.2930 ca         1 7IG      -0.200500
     12 C8           1.5410     0.1340     1.2190 ca         1 7IG      -0.082500
     13 C9           2.1990    -0.1300     0.0160 cp         1 7IG      -0.058000
     14 C10          1.4070    -0.3510    -1.1080 ca         1 7IG      -0.082500
     15 C11          0.0220    -0.3010    -1.0530 ca         1 7IG      -0.200500
     16 C12         -0.6300    -0.0380     0.1570 ca         1 7IG       0.163600
     17 N5          -2.0030    -0.0190     0.2770 nu         1 7IG      -0.749600
     18 C13         -6.5490     0.7860    -0.6080 ca         1 7IG       0.162900
     19 C14         -5.2150     0.9380    -0.9400 ca         1 7IG      -0.177500
     20 C15         -4.3030    -0.0130    -0.5000 ca         1 7IG      -0.051300
     21 C16         -4.7350    -1.0890     0.2710 ca         1 7IG      -0.177500
     22 C17         -6.0770    -1.1900     0.5750 ca         1 7IG       0.162900
     23 C18         -7.0160    -0.2670     0.1500 ca         1 7IG      -0.213000
     24 C19         -2.8520     0.1040    -0.8840 c3         1 7IG       0.248100
     25 F2          -6.4970    -2.2260     1.3120 f          1 7IG      -0.135400
     26 HN31         4.1920    -3.4370    -0.2830 hn         1 7IG       0.443300
     27 HN32         2.6900    -2.6030    -0.1530 hn         1 7IG       0.443300
     28 HN41         8.2040     0.4400    -0.5190 hn         1 7IG       0.428800
     29 HN42         8.1140    -1.2600    -0.5840 hn         1 7IG       0.428800
     30 H51          2.8440     2.3360    -0.1790 hc         1 7IG       0.056700
     31 H52          4.3950     2.9680    -0.7090 hc         1 7IG       0.056700
     32 H61          3.6430     2.3560     2.1990 hc         1 7IG       0.036367
     33 H62          5.2140     2.9530     1.6670 hc         1 7IG       0.036367
     34 H63          3.7770     3.9580     1.4770 hc         1 7IG       0.036367
     35 H7          -0.3150     0.3970     2.2430 ha         1 7IG       0.130500
     36 H8           2.1210     0.3100     2.1160 ha         1 7IG       0.133500
     37 H10          1.8810    -0.5520    -2.0620 ha         1 7IG       0.133500
     38 H11         -0.5400    -0.4650    -1.9630 ha         1 7IG       0.130500
     39 HN5         -2.3360     0.4930     1.0800 hn         1 7IG       0.411800
     40 H14         -4.8940     1.7870    -1.5290 ha         1 7IG       0.161000
     41 H16         -4.0370    -1.8370     0.6240 ha         1 7IG       0.161000
     42 H18         -8.0640    -0.3670     0.4020 ha         1 7IG       0.170000
     43 H191        -2.6890     1.0430    -1.4280 h1         1 7IG       0.050200
     44 H192        -2.6230    -0.7040    -1.5830 h1         1 7IG       0.050200
     45 F1          -7.4280     1.7030    -1.0330 f          1 7IG      -0.135400
@<TRIPOS>BOND
     1     1     2 ar  
     2     1     6 ar  
     3     1     7 1   
     4     2     3 ar  
     5     3     4 ar  
     6     3     8 1   
     7     4     5 ar  
     8     5     6 ar  
     9     5     9 1   
    10     6    13 1   
    11     7    26 1   
    12     7    27 1   
    13     8    28 1   
    14     8    29 1   
    15     9    10 1   
    16     9    30 1   
    17     9    31 1   
    18    10    32 1   
    19    10    33 1   
    20    10    34 1   
    21    11    12 ar  
    22    11    16 ar  
    23    11    35 1   
    24    12    13 ar  
    25    12    36 1   
    26    13    14 ar  
    27    14    15 ar  
    28    14    37 1   
    29    15    16 ar  
    30    15    38 1   
    31    16    17 1   
    32    17    24 1   
    33    17    39 1   
    34    18    19 ar  
    35    18    23 ar  
    36    18    45 1   
    37    19    20 ar  
    38    19    40 1   
    39    20    21 ar  
    40    20    24 1   
    41    21    22 ar  
    42    21    41 1   
    43    22    23 ar  
    44    22    25 1   
    45    23    42 1   
    46    24    43 1   
    47    24    44 1   
@<TRIPOS>SUBSTRUCTURE
     1 7IG         1 TEMP              0 ****  ****    0 ROOT
