@<TRIPOS>MOLECULE
7IG
   45    47     1     0     0
SMALL
No Charge or Current Charge


@<TRIPOS>ATOM
      1 C1           4.4750    -1.3890    -0.0950 ca         1 7IG       0.433900
      2 N1           5.8080    -1.4350    -0.1290 nb         1 7IG      -0.335000
      3 C2           6.4220    -0.2510    -0.1100 ca         1 7IG       0.408900
      4 N2           5.8650     0.9630    -0.0690 nb         1 7IG      -0.291000
      5 C3           4.5170     1.0070    -0.0340 ca         1 7IG       0.204300
      6 C4           3.7400    -0.1840    -0.0460 cp         1 7IG      -0.267000
      7 N3           3.8700    -2.6010    -0.1050 nv         1 7IG      -1.083900
      8 N4           7.7730    -0.2860    -0.1470 nv         1 7IG      -1.051900
      9 C5           3.9100     2.4080    -0.0110 c3         1 7IG      -0.133700
     10 C6           3.9280     3.0480     1.3920 c3         1 7IG      -0.082100
     11 C7           0.1390     0.1830     1.1770 ca         1 7IG      -0.182500
     12 C8           1.5450     0.1590     1.1600 ca         1 7IG      -0.064500
     13 C9           2.2480    -0.1650    -0.0220 cp         1 7IG      -0.058000
     14 C10          1.5040    -0.4700    -1.1850 ca         1 7IG      -0.064500
     15 C11          0.0980    -0.4460    -1.1670 ca         1 7IG      -0.182500
     16 C12         -0.5890    -0.1180     0.0160 ca         1 7IG       0.302000
     17 N5          -1.9820    -0.0860     0.0660 nu         1 7IG      -0.943200
     18 C13         -6.3280     1.1980    -0.1420 ca         1 7IG       0.198000
     19 C14         -5.0080     1.0610    -0.6000 ca         1 7IG      -0.159500
     20 C15         -4.3600    -0.1900    -0.5390 ca         1 7IG      -0.051300
     21 C16         -5.0550    -1.2960    -0.0100 ca         1 7IG      -0.159500
     22 C17         -6.3750    -1.1500     0.4460 ca         1 7IG       0.198000
     23 C18         -7.0160     0.0950     0.3810 ca         1 7IG      -0.195000
     24 C19         -2.9260    -0.3420    -1.0320 c3         1 7IG       0.248100
     25 F2          -7.0320    -2.2160     0.9510 f          1 7IG      -0.170500
     26 HN31         4.4200    -3.4100    -0.3840 hn         1 7IG       0.498500
     27 HN32         2.8710    -2.6360    -0.2830 hn         1 7IG       0.498500
     28 HN41         8.2710     0.5740    -0.3620 hn         1 7IG       0.484000
     29 HN42         8.2280    -1.1580    -0.4040 hn         1 7IG       0.484000
     30 H51          2.8780     2.3900    -0.3790 hc         1 7IG       0.056700
     31 H52          4.4570     3.0610    -0.7020 hc         1 7IG       0.056700
     32 H61          3.3640     2.4390     2.1070 hc         1 7IG       0.036367
     33 H62          4.9570     3.1460     1.7600 hc         1 7IG       0.036367
     34 H63          3.4780     4.0470     1.3630 hc         1 7IG       0.036367
     35 H7          -0.3810     0.4340     2.0960 ha         1 7IG       0.112500
     36 H8           2.0960     0.3880     2.0680 ha         1 7IG       0.115500
     37 H10          2.0250    -0.7180    -2.1070 ha         1 7IG       0.115500
     38 H11         -0.4470    -0.6820    -2.0750 ha         1 7IG       0.112500
     39 HN5         -2.3920     0.1610     0.9680 hn         1 7IG       0.467000
     40 H14         -4.4880     1.9280    -1.0000 ha         1 7IG       0.143000
     41 H16         -4.5730    -2.2680     0.0520 ha         1 7IG       0.143000
     42 H18         -8.0370     0.2040     0.7340 ha         1 7IG       0.152000
     43 H191        -2.7480     0.3630    -1.8560 h1         1 7IG       0.050200
     44 H192        -2.7830    -1.3580    -1.4260 h1         1 7IG       0.050200
     45 F1          -6.9390     2.4000    -0.2050 f          1 7IG      -0.170500
@<TRIPOS>BOND
     1     1     2 ar  
     2     1     6 ar  
     3     1     7 1   
     4     2     3 ar  
     5     3     4 ar  
     6     3     8 1   
     7     4     5 ar  
     8     5     6 ar  
     9     5     9 1   
    10     6    13 1   
    11     7    26 1   
    12     7    27 1   
    13     8    28 1   
    14     8    29 1   
    15     9    10 1   
    16     9    30 1   
    17     9    31 1   
    18    10    32 1   
    19    10    33 1   
    20    10    34 1   
    21    11    12 ar  
    22    11    16 ar  
    23    11    35 1   
    24    12    13 ar  
    25    12    36 1   
    26    13    14 ar  
    27    14    15 ar  
    28    14    37 1   
    29    15    16 ar  
    30    15    38 1   
    31    16    17 1   
    32    17    24 1   
    33    17    39 1   
    34    18    19 ar  
    35    18    23 ar  
    36    18    45 1   
    37    19    20 ar  
    38    19    40 1   
    39    20    21 ar  
    40    20    24 1   
    41    21    22 ar  
    42    21    41 1   
    43    22    23 ar  
    44    22    25 1   
    45    23    42 1   
    46    24    43 1   
    47    24    44 1   
@<TRIPOS>SUBSTRUCTURE
     1 7IG         1 TEMP              0 ****  ****    0 ROOT
