@<TRIPOS>MOLECULE
7IH
   46    49     1     0     0
SMALL
abcg2


@<TRIPOS>ATOM
      1 C4          -7.4540     1.3030    26.8470 c6         1 7IH       0.088300
      2 C14         -8.7880     1.8390    22.2360 ca         1 7IH      -0.049500
      3 C5          -7.4310    -0.0180    27.6110 c6         1 7IH       0.098000
      4 C7          -6.6460    -1.2500    25.6290 c          1 7IH       0.605600
      5 C9          -7.3230    -0.1870    24.8670 cc         1 7IH      -0.233600
      6 C12         -8.2310     1.1940    23.4250 cd         1 7IH       0.273500
      7 C13         -7.6600    -0.0850    23.5380 cd         1 7IH      -0.131000
      8 C15         -8.9700     1.1230    21.0540 ca         1 7IH      -0.186000
      9 C16         -9.5170     1.7840    19.9710 ca         1 7IH       0.366900
     10 C18         -9.6950     3.7450    21.1140 ca         1 7IH       0.475900
     11 C19         -9.1550     3.1800    22.2670 ca         1 7IH      -0.157000
     12 C2          -6.2330     2.2240    27.0030 c3         1 7IH      -0.073700
     13 C21        -10.0290     6.0830    21.9140 c          1 7IH       0.647100
     14 C23        -10.5430     7.3800    21.4050 cx         1 7IH      -0.248700
     15 C24        -11.1680     8.3310    22.3930 cx         1 7IH      -0.095400
     16 C25         -9.8270     8.6350    21.8390 cx         1 7IH      -0.095400
     17 N10         -7.6950     0.9710    25.4520 na         1 7IH       0.158800
     18 N11         -8.2310     1.8160    24.6030 nc         1 7IH      -0.485800
     19 N17         -9.8750     3.0590    19.9890 nb         1 7IH      -0.735000
     20 N20        -10.1020     5.0710    21.0040 ns         1 7IH      -0.318900
     21 N6          -6.6290    -1.0340    26.9550 ns         1 7IH      -0.508900
     22 O22         -9.5790     5.9500    23.0390 o          1 7IH      -0.584100
     23 O8          -6.1320    -2.2070    25.0730 o          1 7IH      -0.537000
     24 H1          -8.3310     1.8550    27.1920 h1         1 7IH       0.086700
     25 H2          -7.0280     0.1400    28.6080 h1         1 7IH       0.057700
     26 H3          -8.4590    -0.3720    27.7350 h1         1 7IH       0.057700
     27 H4          -7.5100    -0.8280    22.7730 ha         1 7IH       0.161000
     28 H5          -7.1000     3.2060    28.7450 hc         1 7IH       0.040033
     29 H6          -5.9020     1.9730    29.1460 hc         1 7IH       0.040033
     30 H7          -5.3850     3.5240    28.5040 hc         1 7IH       0.040033
     31 H8          -4.1210     2.3560    26.6200 hc         1 7IH       0.040033
     32 H9          -4.6130     0.7840    27.2370 hc         1 7IH       0.040033
     33 H10         -4.9340     1.2220    25.5560 hc         1 7IH       0.040033
     34 H11         -8.7080     0.0780    20.9690 ha         1 7IH       0.128000
     35 H12         -9.6780     1.2560    19.0370 h4         1 7IH       0.018100
     36 H13         -9.0240     3.7630    23.1630 ha         1 7IH       0.169000
     37 H14         -6.4310     3.0770    26.3460 hc         1 7IH       0.074700
     38 H15        -10.9560     7.3820    20.4030 hc         1 7IH       0.089700
     39 H16        -12.0170     8.9020    22.0420 hc         1 7IH       0.082950
     40 H17        -11.2350     8.0040    23.4220 hc         1 7IH       0.082950
     41 H18         -8.9680     8.5150    22.4860 hc         1 7IH       0.082950
     42 H19         -9.7330     9.4190    21.1010 hc         1 7IH       0.082950
     43 H20        -10.4780     5.2910    20.0920 hn         1 7IH       0.167000
     44 H21         -6.2000    -1.7420    27.5340 hn         1 7IH       0.326500
     45 C3          -6.1560     2.7570    28.4300 c3         1 7IH      -0.090100
     46 C1          -4.9080     1.6020    26.5780 c3         1 7IH      -0.090100
@<TRIPOS>BOND
     1     1     3 1   
     2     1    12 1   
     3     1    17 1   
     4     1    24 1   
     5     2     6 1   
     6     2     8 ar  
     7     2    11 ar  
     8     3    21 1   
     9     3    25 1   
    10     3    26 1   
    11     4     5 1   
    12     4    21 1   
    13     4    23 2   
    14     5     7 2   
    15     5    17 1   
    16     6     7 1   
    17     6    18 2   
    18     7    27 1   
    19     8     9 ar  
    20     8    34 1   
    21     9    19 ar  
    22     9    35 1   
    23    10    11 ar  
    24    10    19 ar  
    25    10    20 1   
    26    11    36 1   
    27    12    37 1   
    28    12    45 1   
    29    12    46 1   
    30    13    14 1   
    31    13    20 1   
    32    13    22 2   
    33    14    15 1   
    34    14    16 1   
    35    14    38 1   
    36    15    16 1   
    37    15    39 1   
    38    15    40 1   
    39    16    41 1   
    40    16    42 1   
    41    17    18 1   
    42    20    43 1   
    43    21    44 1   
    44    28    45 1   
    45    29    45 1   
    46    30    45 1   
    47    31    46 1   
    48    32    46 1   
    49    33    46 1   
@<TRIPOS>SUBSTRUCTURE
     1 7IH         1 TEMP              0 ****  ****    0 ROOT
