@<TRIPOS>MOLECULE
7IH
   46    49     1     0     0
SMALL
No Charge or Current Charge


@<TRIPOS>ATOM
      1 C4          -7.4240     1.1360    26.9940 c6         1 7IH       0.088300
      2 C14         -8.6890     2.0320    22.3170 ca         1 7IH      -0.049500
      3 C5          -7.2960    -0.2620    27.6970 c6         1 7IH       0.098000
      4 C7          -6.7540    -1.4140    25.4900 c          1 7IH       0.605600
      5 C9          -7.3410    -0.2110    24.8940 cc         1 7IH      -0.233600
      6 C12         -8.2000     1.3330    23.5280 cd         1 7IH       0.273500
      7 C13         -7.6430     0.0330    23.5860 cd         1 7IH      -0.131000
      8 C15         -8.6350     1.4310    21.0420 ca         1 7IH      -0.186000
      9 C16         -9.1020     2.1320    19.9180 ca         1 7IH       0.366900
     10 C18         -9.6770     3.9590    21.2020 ca         1 7IH       0.475900
     11 C19         -9.2270     3.3360    22.3820 ca         1 7IH      -0.157000
     12 C2          -6.1970     2.0830    27.2480 c3         1 7IH      -0.073700
     13 C21        -10.6600     6.1090    22.0810 c          1 7IH       0.647100
     14 C23        -11.1730     7.4200    21.5350 cx         1 7IH      -0.248700
     15 C24        -10.6930     8.7160    22.1610 cx         1 7IH      -0.095400
     16 C25        -10.2160     8.3250    20.7820 cx         1 7IH      -0.095400
     17 N10         -7.6970     0.9430    25.5530 na         1 7IH       0.158800
     18 N11         -8.2380     1.9050    24.7240 nc         1 7IH      -0.485800
     19 N17         -9.6160     3.3790    19.9890 nb         1 7IH      -0.735000
     20 N20        -10.2260     5.2420    21.1100 ns         1 7IH      -0.318900
     21 N6          -6.7080    -1.3470    26.8640 ns         1 7IH      -0.508900
     22 O22        -10.6590     5.8620    23.2790 o          1 7IH      -0.584100
     23 O8          -6.3610    -2.3880    24.8710 o          1 7IH      -0.537000
     24 H1          -8.3030     1.6390    27.4200 h1         1 7IH       0.086700
     25 H2          -6.7260    -0.1800    28.6320 h1         1 7IH       0.057700
     26 H3          -8.3070    -0.5930    27.9760 h1         1 7IH       0.057700
     27 H4          -7.4940    -0.6500    22.7570 ha         1 7IH       0.161000
     28 H5          -7.0300     2.9660    29.0730 hc         1 7IH       0.040033
     29 H6          -5.8000     1.7200    29.3830 hc         1 7IH       0.040033
     30 H7          -5.3140     3.3270    28.8170 hc         1 7IH       0.040033
     31 H8          -4.0460     2.2610    26.8690 hc         1 7IH       0.040033
     32 H9          -4.5580     0.6170    27.2950 hc         1 7IH       0.040033
     33 H10         -4.8960     1.2680    25.6760 hc         1 7IH       0.040033
     34 H11         -8.2360     0.4320    20.9030 ha         1 7IH       0.128000
     35 H12         -9.0640     1.6790    18.9280 h4         1 7IH       0.018100
     36 H13         -9.2830     3.8540    23.3320 ha         1 7IH       0.169000
     37 H14         -6.3800     2.9960    26.6680 hc         1 7IH       0.074700
     38 H15        -12.2030     7.3960    21.1880 hc         1 7IH       0.089700
     39 H16        -11.4020     9.5370    22.2380 hc         1 7IH       0.082950
     40 H17         -9.9760     8.6600    22.9780 hc         1 7IH       0.082950
     41 H18         -9.1790     8.0120    20.6780 hc         1 7IH       0.082950
     42 H19        -10.6050     8.8850    19.9340 hc         1 7IH       0.082950
     43 H20        -10.3230     5.5770    20.1630 hn         1 7IH       0.167000
     44 H21         -6.3070    -2.1520    27.3300 hn         1 7IH       0.326500
     45 C3          -6.0790     2.5470    28.7200 c3         1 7IH      -0.090100
     46 C1          -4.8440     1.5200    26.7420 c3         1 7IH      -0.090100
@<TRIPOS>BOND
     1     1     3 1   
     2     1    12 1   
     3     1    17 1   
     4     1    24 1   
     5     2     6 1   
     6     2     8 ar  
     7     2    11 ar  
     8     3    21 1   
     9     3    25 1   
    10     3    26 1   
    11     4     5 1   
    12     4    21 1   
    13     4    23 2   
    14     5     7 2   
    15     5    17 1   
    16     6     7 1   
    17     6    18 2   
    18     7    27 1   
    19     8     9 ar  
    20     8    34 1   
    21     9    19 ar  
    22     9    35 1   
    23    10    11 ar  
    24    10    19 ar  
    25    10    20 1   
    26    11    36 1   
    27    12    37 1   
    28    12    45 1   
    29    12    46 1   
    30    13    14 1   
    31    13    20 1   
    32    13    22 2   
    33    14    15 1   
    34    14    16 1   
    35    14    38 1   
    36    15    16 1   
    37    15    39 1   
    38    15    40 1   
    39    16    41 1   
    40    16    42 1   
    41    17    18 1   
    42    20    43 1   
    43    21    44 1   
    44    28    45 1   
    45    29    45 1   
    46    30    45 1   
    47    31    46 1   
    48    32    46 1   
    49    33    46 1   
@<TRIPOS>SUBSTRUCTURE
     1 7IH         1 TEMP              0 ****  ****    0 ROOT
