@<TRIPOS>MOLECULE
7II
   28    28     1     0     0
SMALL
abcg2


@<TRIPOS>ATOM
      1 C1          25.3830    11.9910     9.3500 c3         1 7II      -0.079100
      2 C2          25.6570    12.0500    10.8430 c3         1 7II      -0.063400
      3 C3          27.0380    11.6590    11.2800 ca         1 7II      -0.148300
      4 C4          28.1720    11.9510    10.5360 ca         1 7II      -0.030000
      5 C5          29.4190    11.6060    11.0370 ca         1 7II      -0.114000
      6 C6          29.4700    10.9910    12.2730 ca         1 7II       0.258300
      7 N1          28.3970    10.6890    12.9900 nb         1 7II      -0.624000
      8 C7          27.2140    11.0140    12.5040 ca         1 7II       0.376900
      9 C8          30.7690    10.6260    12.9420 c3         1 7II       0.268700
     10 F1          30.9450    11.3460    14.0550 f          1 7II      -0.102667
     11 F2          31.8270    10.8410    12.1590 f          1 7II      -0.102667
     12 F3          30.7870     9.3410    13.3000 f          1 7II      -0.102667
     13 S1          25.3940    13.7140    11.5290 s6         1 7II       0.781500
     14 O1          25.6630    13.7270    12.9650 o          1 7II      -0.478000
     15 N2          26.2990    14.6070    10.5990 ne         1 7II      -0.391500
     16 C9          26.5710    15.8310    10.9810 cg         1 7II       0.415000
     17 N3          26.8650    16.9200    11.2540 n1         1 7II      -0.499000
     18 C10         23.6800    14.1110    11.2620 c3         1 7II      -0.304100
     19 H3          24.3440    12.2250     9.1290 hc         1 7II       0.063033
     20 H1          26.0190    12.6630     8.7800 hc         1 7II       0.063033
     21 H2          25.5670    10.9710     9.0130 hc         1 7II       0.063033
     22 H4          24.9170    11.4500    11.3830 h1         1 7II       0.094700
     23 H5          28.1030    12.4410     9.5750 ha         1 7II       0.145000
     24 H6          30.3120    11.8260    10.4700 ha         1 7II       0.150000
     25 H7          26.3530    10.7470    13.1080 h4         1 7II       0.033100
     26 H10         23.5190    15.0980    11.6950 h1         1 7II       0.108033
     27 H8          23.4590    14.1300    10.1990 h1         1 7II       0.108033
     28 H9          23.0710    13.3700    11.7780 h1         1 7II       0.108033
@<TRIPOS>BOND
     1     1     2 1   
     2     1    19 1   
     3     1    20 1   
     4     1    21 1   
     5     2     3 1   
     6     2    13 1   
     7     2    22 1   
     8     3     4 ar  
     9     3     8 ar  
    10     4     5 ar  
    11     4    23 1   
    12     5     6 ar  
    13     5    24 1   
    14     6     7 ar  
    15     6     9 1   
    16     7     8 ar  
    17     8    25 1   
    18     9    10 1   
    19     9    11 1   
    20     9    12 1   
    21    13    14 2   
    22    13    15 2   
    23    13    18 1   
    24    15    16 1   
    25    16    17 3   
    26    18    26 1   
    27    18    27 1   
    28    18    28 1   
@<TRIPOS>SUBSTRUCTURE
     1 7II         1 TEMP              0 ****  ****    0 ROOT
