@<TRIPOS>MOLECULE
7II
   28    28     1     0     0
SMALL
No Charge or Current Charge


@<TRIPOS>ATOM
      1 C1          25.3920    11.9920     9.3760 c3         1 7II      -0.079100
      2 C2          25.6080    12.1470    10.9070 c3         1 7II      -0.063400
      3 C3          27.0220    11.7500    11.3540 ca         1 7II      -0.148300
      4 C4          28.1710    12.1340    10.6330 ca         1 7II      -0.030000
      5 C5          29.4300    11.7470    11.1160 ca         1 7II      -0.114000
      6 C6          29.5220    10.9940    12.3040 ca         1 7II       0.258300
      7 N1          28.4150    10.6300    13.0050 nb         1 7II      -0.624000
      8 C7          27.2020    11.0050    12.5380 ca         1 7II       0.376900
      9 C8          30.9050    10.5690    12.8370 c3         1 7II       0.268700
     10 F1          31.6810    11.6420    13.1140 f          1 7II      -0.102667
     11 F2          31.5790     9.8230    11.9300 f          1 7II      -0.102667
     12 F3          30.8420     9.8320    13.9730 f          1 7II      -0.102667
     13 S1          25.1520    13.8100    11.5260 s6         1 7II       0.781500
     14 O1          25.2620    13.8400    12.9900 o          1 7II      -0.478000
     15 N2          26.0210    14.8980    10.7550 ne         1 7II      -0.391500
     16 C9          26.8910    15.7300    11.2940 cg         1 7II       0.415000
     17 N3          27.6960    16.4970    11.6440 n1         1 7II      -0.499000
     18 C10         23.4310    14.0040    11.0380 c3         1 7II      -0.304100
     19 H3          24.3300    12.0790     9.1160 hc         1 7II       0.063033
     20 H1          25.9440    12.7500     8.8080 hc         1 7II       0.063033
     21 H2          25.7290    11.0030     9.0430 hc         1 7II       0.063033
     22 H4          24.8970    11.4750    11.4040 h1         1 7II       0.094700
     23 H5          28.1000    12.7240     9.7210 ha         1 7II       0.145000
     24 H6          30.3310    12.0300    10.5780 ha         1 7II       0.150000
     25 H7          26.3440    10.6960    13.1350 h4         1 7II       0.033100
     26 H10         23.0690    14.9440    11.4680 h1         1 7II       0.108033
     27 H8          23.3810    14.0380     9.9450 h1         1 7II       0.108033
     28 H9          22.8660    13.1530    11.4350 h1         1 7II       0.108033
@<TRIPOS>BOND
     1     1     2 1   
     2     1    19 1   
     3     1    20 1   
     4     1    21 1   
     5     2     3 1   
     6     2    13 1   
     7     2    22 1   
     8     3     4 ar  
     9     3     8 ar  
    10     4     5 ar  
    11     4    23 1   
    12     5     6 ar  
    13     5    24 1   
    14     6     7 ar  
    15     6     9 1   
    16     7     8 ar  
    17     8    25 1   
    18     9    10 1   
    19     9    11 1   
    20     9    12 1   
    21    13    14 2   
    22    13    15 2   
    23    13    18 1   
    24    15    16 1   
    25    16    17 3   
    26    18    26 1   
    27    18    27 1   
    28    18    28 1   
@<TRIPOS>SUBSTRUCTURE
     1 7II         1 TEMP              0 ****  ****    0 ROOT
