@<TRIPOS>MOLECULE
7IJ
   46    50     1     0     0
SMALL
abcg2


@<TRIPOS>ATOM
      1 C15         -3.0780   -18.7870   165.5960 ca         1 7IJ       0.010000
      2 C14         -4.1760   -18.1090   165.1230 ca         1 7IJ      -0.242000
      3 C12         -5.2700   -20.2100   164.6060 ca         1 7IJ      -0.186000
      4 C4           1.1560   -21.5410   167.4410 ca         1 7IJ      -0.054000
      5 C3           1.7690   -22.7420   167.7410 ca         1 7IJ      -0.191000
      6 C11         -3.1600   -23.0560   165.4530 c          1 7IJ       0.727300
      7 C13         -5.2790   -18.8200   164.6240 ca         1 7IJ       0.198100
      8 C7          -2.0390   -22.3890   166.0620 cc         1 7IJ      -0.255400
      9 C5          -0.1090   -21.6190   166.9040 ca         1 7IJ       0.003100
     10 C8          -2.0040   -21.0170   166.0580 cd         1 7IJ       0.185900
     11 C1          -0.1740   -24.0340   166.9850 ca         1 7IJ      -0.063300
     12 C2           1.1140   -23.9630   167.5260 ca         1 7IJ       0.130100
     13 N1          -1.9880   -25.4700   167.7960 n3         1 7IJ      -0.706600
     14 C10         -4.1580   -20.8770   165.0870 ca         1 7IJ       0.232100
     15 C17         -1.5380   -25.4480   169.1780 c6         1 7IJ       0.165300
     16 C18         -2.7140   -25.5010   170.1410 c6         1 7IJ      -0.074400
     17 C19         -3.5730   -26.7310   169.8840 c6         1 7IJ      -0.075400
     18 C20         -3.9750   -26.7800   168.4160 c6         1 7IJ      -0.074400
     19 C21         -2.7520   -26.6740   167.5180 c6         1 7IJ       0.165300
     20 C6          -0.7810   -22.8170   166.6450 ca         1 7IJ       0.010200
     21 C9          -3.0520   -20.1840   165.5870 ca         1 7IJ      -0.185800
     22 O1          -0.8690   -20.5380   166.5530 os         1 7IJ      -0.152200
     23 O2          -4.1750   -22.2270   165.0430 os         1 7IJ      -0.354200
     24 O3          -3.3170   -24.2270   165.2360 o          1 7IJ      -0.465000
     25 O4           1.7180   -25.1250   167.8590 oh         1 7IJ      -0.533100
     26 O5          -6.3680   -18.2090   164.1480 oh         1 7IJ      -0.520100
     27 H1          -2.2320   -18.2330   165.9800 ha         1 7IJ       0.130000
     28 H2          -4.1890   -17.0260   165.1360 ha         1 7IJ       0.122000
     29 H3          -6.1170   -20.7620   164.2190 ha         1 7IJ       0.156000
     30 H4           1.6470   -20.5950   167.6200 ha         1 7IJ       0.133000
     31 H5           2.7670   -22.7390   168.1630 ha         1 7IJ       0.119000
     32 H6          -1.3020   -25.4320   165.8460 h1         1 7IJ       0.054700
     33 H7          -0.1770   -26.1800   166.9610 h1         1 7IJ       0.054700
     34 H9          -0.8540   -26.2910   169.3900 h1         1 7IJ       0.031200
     35 H10         -0.9690   -24.5320   169.3520 h1         1 7IJ       0.031200
     36 H11         -2.3380   -25.4950   171.1670 hc         1 7IJ       0.044450
     37 H12         -3.3190   -24.5980   170.0180 hc         1 7IJ       0.044450
     38 H13         -4.4560   -26.7280   170.5270 hc         1 7IJ       0.035700
     39 H14         -3.0040   -27.6320   170.1370 hc         1 7IJ       0.035700
     40 H15         -4.6560   -25.9540   168.1920 hc         1 7IJ       0.044450
     41 H16         -4.5080   -27.7060   168.1890 hc         1 7IJ       0.044450
     42 H17         -3.0600   -26.6550   166.4710 h1         1 7IJ       0.031200
     43 H18         -2.1290   -27.5790   167.6490 h1         1 7IJ       0.031200
     44 H19          2.5880   -24.9540   168.2360 ho         1 7IJ       0.465000
     45 H20         -6.2800   -17.2500   164.2010 ho         1 7IJ       0.474000
     46 C16         -0.8880   -25.3500   166.8510 c3         1 7IJ       0.217100
@<TRIPOS>BOND
     1     1     2 ar  
     2     1    21 ar  
     3     1    27 1   
     4     2     7 ar  
     5     2    28 1   
     6     3     7 ar  
     7     3    14 ar  
     8     3    29 1   
     9     4     5 ar  
    10     4     9 ar  
    11     4    30 1   
    12     5    12 ar  
    13     5    31 1   
    14     6     8 1   
    15     6    23 1   
    16     6    24 2   
    17     7    26 1   
    18     8    10 2   
    19     8    20 1   
    20     9    20 ar  
    21     9    22 1   
    22    10    21 1   
    23    10    22 1   
    24    11    12 ar  
    25    11    20 ar  
    26    11    46 1   
    27    12    25 1   
    28    13    15 1   
    29    13    19 1   
    30    13    46 1   
    31    14    21 ar  
    32    14    23 1   
    33    15    16 1   
    34    15    34 1   
    35    15    35 1   
    36    16    17 1   
    37    16    36 1   
    38    16    37 1   
    39    17    18 1   
    40    17    38 1   
    41    17    39 1   
    42    18    19 1   
    43    18    40 1   
    44    18    41 1   
    45    19    42 1   
    46    19    43 1   
    47    25    44 1   
    48    26    45 1   
    49    32    46 1   
    50    33    46 1   
@<TRIPOS>SUBSTRUCTURE
     1 7IJ         1 TEMP              0 ****  ****    0 ROOT
