@<TRIPOS>MOLECULE
7IJ
   46    50     1     0     0
SMALL
No Charge or Current Charge


@<TRIPOS>ATOM
      1 C15         -3.0790   -18.7490   165.5700 ca         1 7IJ       0.010000
      2 C14         -4.1740   -18.0290   165.0580 ca         1 7IJ      -0.242000
      3 C12         -5.3060   -20.1140   164.5140 ca         1 7IJ      -0.186000
      4 C4           1.1750   -21.5000   167.4270 ca         1 7IJ      -0.054000
      5 C3           1.8000   -22.7180   167.7450 ca         1 7IJ      -0.191000
      6 C11         -3.2360   -23.0490   165.4400 c          1 7IJ       0.727300
      7 C13         -5.2820   -18.7120   164.5320 ca         1 7IJ       0.198100
      8 C7          -2.0710   -22.3570   166.0430 cc         1 7IJ      -0.255400
      9 C5          -0.1050   -21.5570   166.8760 ca         1 7IJ       0.003100
     10 C8          -2.0520   -20.9940   166.0550 cd         1 7IJ       0.185900
     11 C1          -0.1790   -23.9890   166.9750 ca         1 7IJ      -0.063300
     12 C2           1.1340   -23.9460   167.5300 ca         1 7IJ       0.130100
     13 N1          -1.9950   -25.5340   167.8110 n3         1 7IJ      -0.706600
     14 C10         -4.2190   -20.8360   165.0240 ca         1 7IJ       0.232100
     15 C17         -1.5190   -25.5020   169.2240 c6         1 7IJ       0.165300
     16 C18         -2.6960   -25.6050   170.2260 c6         1 7IJ      -0.074400
     17 C19         -3.5460   -26.8680   169.9600 c6         1 7IJ      -0.075400
     18 C20         -3.9930   -26.9050   168.4810 c6         1 7IJ      -0.074400
     19 C21         -2.7770   -26.7700   167.5310 c6         1 7IJ       0.165300
     20 C6          -0.7770   -22.7500   166.6260 ca         1 7IJ       0.010200
     21 C9          -3.1120   -20.1540   165.5490 ca         1 7IJ      -0.185800
     22 O1          -0.8810   -20.4920   166.5340 os         1 7IJ      -0.152200
     23 O2          -4.2450   -22.2180   164.9920 os         1 7IJ      -0.354200
     24 O3          -3.3330   -24.2570   165.3010 o          1 7IJ      -0.465000
     25 O4           1.7830   -25.0950   167.8840 oh         1 7IJ      -0.533100
     26 O5          -6.3400   -18.0160   164.0360 oh         1 7IJ      -0.520100
     27 H1          -2.2200   -18.2190   165.9800 ha         1 7IJ       0.130000
     28 H2          -4.1510   -16.9420   165.0730 ha         1 7IJ       0.122000
     29 H3          -6.1620   -20.6400   164.1050 ha         1 7IJ       0.156000
     30 H4           1.6670   -20.5470   167.6060 ha         1 7IJ       0.133000
     31 H5           2.7990   -22.7030   168.1740 ha         1 7IJ       0.119000
     32 H6          -1.2850   -25.3950   165.7970 h1         1 7IJ       0.054700
     33 H7          -0.1840   -26.1540   166.9040 h1         1 7IJ       0.054700
     34 H9          -0.8170   -26.3300   169.4070 h1         1 7IJ       0.031200
     35 H10         -0.9770   -24.5680   169.4300 h1         1 7IJ       0.031200
     36 H11         -2.3090   -25.6210   171.2540 hc         1 7IJ       0.044450
     37 H12         -3.3260   -24.7090   170.1420 hc         1 7IJ       0.044450
     38 H13         -4.4230   -26.8820   170.6220 hc         1 7IJ       0.035700
     39 H14         -2.9580   -27.7670   170.1930 hc         1 7IJ       0.035700
     40 H15         -4.7020   -26.0890   168.2850 hc         1 7IJ       0.044450
     41 H16         -4.5260   -27.8420   168.2720 hc         1 7IJ       0.044450
     42 H17         -3.1430   -26.7630   166.4930 h1         1 7IJ       0.031200
     43 H18         -2.1360   -27.6570   167.6410 h1         1 7IJ       0.031200
     44 H19          2.6640   -24.8580   168.2430 ho         1 7IJ       0.465000
     45 H20         -6.1480   -17.0590   164.1310 ho         1 7IJ       0.474000
     46 C16         -0.9030   -25.3290   166.8220 c3         1 7IJ       0.217100
@<TRIPOS>BOND
     1     1     2 ar  
     2     1    21 ar  
     3     1    27 1   
     4     2     7 ar  
     5     2    28 1   
     6     3     7 ar  
     7     3    14 ar  
     8     3    29 1   
     9     4     5 ar  
    10     4     9 ar  
    11     4    30 1   
    12     5    12 ar  
    13     5    31 1   
    14     6     8 1   
    15     6    23 1   
    16     6    24 2   
    17     7    26 1   
    18     8    10 2   
    19     8    20 1   
    20     9    20 ar  
    21     9    22 1   
    22    10    21 1   
    23    10    22 1   
    24    11    12 ar  
    25    11    20 ar  
    26    11    46 1   
    27    12    25 1   
    28    13    15 1   
    29    13    19 1   
    30    13    46 1   
    31    14    21 ar  
    32    14    23 1   
    33    15    16 1   
    34    15    34 1   
    35    15    35 1   
    36    16    17 1   
    37    16    36 1   
    38    16    37 1   
    39    17    18 1   
    40    17    38 1   
    41    17    39 1   
    42    18    19 1   
    43    18    40 1   
    44    18    41 1   
    45    19    42 1   
    46    19    43 1   
    47    25    44 1   
    48    26    45 1   
    49    32    46 1   
    50    33    46 1   
@<TRIPOS>SUBSTRUCTURE
     1 7IJ         1 TEMP              0 ****  ****    0 ROOT
