@<TRIPOS>MOLECULE
7IK
   42    44     1     0     0
SMALL
abcg2


@<TRIPOS>ATOM
      1 C14         49.3060     3.2580   102.6730 c6         1 7IK       0.098000
      2 C5          49.7660     0.6600   110.0100 c6         1 7IK       0.145600
      3 C6          50.1030     0.9140   108.5530 c6         1 7IK       0.169800
      4 C8          50.2160     2.7590   107.0040 cc         1 7IK       0.483900
      5 C9          50.5550     4.0350   106.5000 cc         1 7IK      -0.193000
      6 C10         50.3340     3.9250   105.1450 cd         1 7IK      -0.199600
      7 C13         49.6880     2.1060   103.5980 c6         1 7IK       0.095300
      8 C3          50.6520     2.6910   110.6650 c6         1 7IK       0.151600
      9 C16         50.5690     4.8710   104.0420 c          1 7IK       0.602600
     10 C18         50.8800     1.2310   103.1730 c3         1 7IK      -0.074700
     11 C19         50.5440     0.4480   101.9080 c3         1 7IK      -0.089600
     12 C2          51.0770     3.0560   109.2480 c6         1 7IK       0.182500
     13 C20         52.1970     1.9810   103.0160 c3         1 7IK      -0.089600
     14 N11         49.8890     2.6800   104.9120 na         1 7IK       0.141800
     15 N12         49.8340     1.9480   106.0220 nd         1 7IK      -0.570800
     16 N15         50.1510     4.4250   102.8450 ns         1 7IK      -0.508900
     17 N7          50.2090     2.3420   108.3150 nh         1 7IK      -0.740300
     18 O17         51.1320     5.9390   104.2230 o          1 7IK      -0.540000
     19 O4          50.6740     1.2990   110.8790 os         1 7IK      -0.445000
     20 H1          48.2590     3.5220   102.8560 h1         1 7IK       0.055700
     21 H2          49.3750     2.9380   101.6350 h1         1 7IK       0.055700
     22 H4          49.8070    -0.4100   110.2170 h1         1 7IK       0.051200
     23 H5          49.3030     0.5040   107.9380 h1         1 7IK       0.054200
     24 H6          51.0240     0.3830   108.2750 h1         1 7IK       0.054200
     25 H7          50.9030     4.9040   107.0310 ha         1 7IK       0.159000
     26 H8          48.8130     1.4540   103.6650 h1         1 7IK       0.082700
     27 H9          51.3360     3.1460   111.3830 h1         1 7IK       0.053200
     28 H10         49.6460     3.0920   110.8550 h1         1 7IK       0.053200
     29 H14         51.0050     0.5040   103.9830 hc         1 7IK       0.070700
     30 H15         49.6020    -0.0940   102.0070 hc         1 7IK       0.039200
     31 H16         50.4700     1.0960   101.0340 hc         1 7IK       0.039200
     32 H17         51.3260    -0.2840   101.7010 hc         1 7IK       0.039200
     33 H18         50.8810     4.1260   109.1380 h1         1 7IK       0.064700
     34 H19         52.4730     2.5380   103.9130 hc         1 7IK       0.039200
     35 H20         53.0010     1.2680   102.8250 hc         1 7IK       0.039200
     36 H21         52.1720     2.6760   102.1760 hc         1 7IK       0.039200
     37 H22         50.2660     5.0420   102.0550 hn         1 7IK       0.324500
     38 H3          48.7420     1.0050   110.2090 h1         1 7IK       0.051200
     39 C1          52.5630     2.8000   109.0070 c3         1 7IK      -0.119100
     40 H11         53.1660     3.4180   109.6740 hc         1 7IK       0.044700
     41 H12         52.8310     1.7590   109.1880 hc         1 7IK       0.044700
     42 H13         52.8450     3.0480   107.9830 hc         1 7IK       0.044700
@<TRIPOS>BOND
     1     1     7 1   
     2     1    16 1   
     3     1    20 1   
     4     1    21 1   
     5     2     3 1   
     6     2    19 1   
     7     2    22 1   
     8     2    38 1   
     9     3    17 1   
    10     3    23 1   
    11     3    24 1   
    12     4     5 1   
    13     4    15 2   
    14     4    17 1   
    15     5     6 2   
    16     5    25 1   
    17     6     9 1   
    18     6    14 1   
    19     7    10 1   
    20     7    14 1   
    21     7    26 1   
    22     8    12 1   
    23     8    19 1   
    24     8    27 1   
    25     8    28 1   
    26     9    16 1   
    27     9    18 2   
    28    10    11 1   
    29    10    13 1   
    30    10    29 1   
    31    11    30 1   
    32    11    31 1   
    33    11    32 1   
    34    12    17 1   
    35    12    33 1   
    36    12    39 1   
    37    13    34 1   
    38    13    35 1   
    39    13    36 1   
    40    14    15 1   
    41    16    37 1   
    42    39    40 1   
    43    39    41 1   
    44    39    42 1   
@<TRIPOS>SUBSTRUCTURE
     1 7IK         1 TEMP              0 ****  ****    0 ROOT
