@<TRIPOS>MOLECULE
7IK
   42    44     1     0     0
SMALL
No Charge or Current Charge


@<TRIPOS>ATOM
      1 C14         49.3570     3.3460   102.5890 c6         1 7IK       0.098000
      2 C5          49.7530     0.6230   110.1420 c6         1 7IK       0.145600
      3 C6          50.3060     0.7790   108.6960 c6         1 7IK       0.169800
      4 C8          50.3450     2.6000   106.9550 cc         1 7IK       0.483900
      5 C9          50.7080     3.8740   106.4710 cc         1 7IK      -0.193000
      6 C10         50.4390     3.8650   105.1360 cd         1 7IK      -0.199600
      7 C13         49.6630     2.1170   103.5140 c6         1 7IK       0.095300
      8 C3          50.4650     2.8310   110.7500 c6         1 7IK       0.151600
      9 C16         50.6240     4.9290   104.1340 c          1 7IK       0.602600
     10 C18         50.7860     1.1710   102.9560 c3         1 7IK      -0.074700
     11 C19         50.3680     0.4230   101.6660 c3         1 7IK      -0.089600
     12 C2          51.0620     3.1100   109.3310 c6         1 7IK       0.182500
     13 C20         52.1620     1.8570   102.7690 c3         1 7IK      -0.089600
     14 N11         49.9540     2.5940   104.8830 na         1 7IK       0.141800
     15 N12         49.8890     1.7950   106.0160 nd         1 7IK      -0.570800
     16 N15         50.1230     4.5830   102.8980 ns         1 7IK      -0.508900
     17 N7          50.4670     2.2170   108.2800 nh         1 7IK      -0.740300
     18 O17         51.1410     6.0130   104.3490 o          1 7IK      -0.540000
     19 O4          50.5140     1.4230   111.0740 os         1 7IK      -0.445000
     20 H1          48.2930     3.5980   102.7030 h1         1 7IK       0.055700
     21 H2          49.5070     3.0880   101.5320 h1         1 7IK       0.055700
     22 H4          49.8020    -0.4310   110.4480 h1         1 7IK       0.051200
     23 H5          49.6230     0.2440   108.0200 h1         1 7IK       0.054200
     24 H6          51.2770     0.2660   108.6320 h1         1 7IK       0.054200
     25 H7          51.1150     4.6950   107.0460 ha         1 7IK       0.159000
     26 H8          48.7450     1.5150   103.5740 h1         1 7IK       0.082700
     27 H9          51.0230     3.3960   111.5110 h1         1 7IK       0.053200
     28 H10         49.4200     3.1690   110.7820 h1         1 7IK       0.053200
     29 H14         50.9390     0.3880   103.7100 hc         1 7IK       0.070700
     30 H15         49.4040    -0.0820   101.8050 hc         1 7IK       0.039200
     31 H16         50.2790     1.1070   100.8140 hc         1 7IK       0.039200
     32 H17         51.1110    -0.3410   101.4070 hc         1 7IK       0.039200
     33 H18         50.8280     4.1610   109.1110 h1         1 7IK       0.064700
     34 H19         52.5040     2.3160   103.7040 hc         1 7IK       0.039200
     35 H20         52.9190     1.1250   102.4620 hc         1 7IK       0.039200
     36 H21         52.1150     2.6370   101.9990 hc         1 7IK       0.039200
     37 H22         50.2300     5.2800   102.1710 hn         1 7IK       0.324500
     38 H3          48.7000     0.9370   110.1740 h1         1 7IK       0.051200
     39 C1          52.6090     2.9710   109.3180 c3         1 7IK      -0.119100
     40 H11         53.0700     3.6530   110.0430 hc         1 7IK       0.044700
     41 H12         52.9250     1.9530   109.5720 hc         1 7IK       0.044700
     42 H13         53.0210     3.2130   108.3310 hc         1 7IK       0.044700
@<TRIPOS>BOND
     1     1     7 1   
     2     1    16 1   
     3     1    20 1   
     4     1    21 1   
     5     2     3 1   
     6     2    19 1   
     7     2    22 1   
     8     2    38 1   
     9     3    17 1   
    10     3    23 1   
    11     3    24 1   
    12     4     5 1   
    13     4    15 2   
    14     4    17 1   
    15     5     6 2   
    16     5    25 1   
    17     6     9 1   
    18     6    14 1   
    19     7    10 1   
    20     7    14 1   
    21     7    26 1   
    22     8    12 1   
    23     8    19 1   
    24     8    27 1   
    25     8    28 1   
    26     9    16 1   
    27     9    18 2   
    28    10    11 1   
    29    10    13 1   
    30    10    29 1   
    31    11    30 1   
    32    11    31 1   
    33    11    32 1   
    34    12    17 1   
    35    12    33 1   
    36    12    39 1   
    37    13    34 1   
    38    13    35 1   
    39    13    36 1   
    40    14    15 1   
    41    16    37 1   
    42    39    40 1   
    43    39    41 1   
    44    39    42 1   
@<TRIPOS>SUBSTRUCTURE
     1 7IK         1 TEMP              0 ****  ****    0 ROOT
