@<TRIPOS>MOLECULE
7IL
   63    65     1     0     0
SMALL
abcg2


@<TRIPOS>ATOM
      1 N1          -1.5200    12.2940    16.8050 n          1 7IL      -0.236400
      2 N3          -2.5900    15.4940    18.2780 na         1 7IL      -0.270500
      3 C4          -1.2420     9.8820    16.2740 c          1 7IL       0.596100
      4 C5          -1.0140    11.0070    17.3140 c3         1 7IL       0.087000
      5 C6          -1.8450    13.2320    17.7470 c          1 7IL       0.652700
      6 C7          -2.1160    14.6150    17.3260 cc         1 7IL      -0.287600
      7 C8          -1.9200    15.3950    16.2010 cd         1 7IL       0.303900
      8 C10         -1.7310    12.4890    15.4040 ca         1 7IL      -0.065000
      9 C1          -3.0920     8.6440    15.0940 c3         1 7IL       0.135400
     10 C2          -2.6470     9.0500    13.6840 c3         1 7IL      -0.104767
     11 C3          -4.6130     8.7630    15.2070 c3         1 7IL      -0.104767
     12 C9          -2.6660    16.7150    17.7220 cc         1 7IL       0.414400
     13 N2          -2.2620    16.6940    16.4590 nd         1 7IL      -0.685000
     14 O1          -1.8610    12.9570    18.9490 o          1 7IL      -0.614100
     15 N           -2.5350     9.5790    16.0970 ns         1 7IL      -0.501900
     16 C           -2.6500     7.2130    15.4170 c3         1 7IL      -0.104767
     17 O           -0.3060     9.3350    15.7010 o          1 7IL      -0.588100
     18 C11         -3.0270    12.6690    14.9250 ca         1 7IL      -0.106000
     19 C12         -3.2480    12.8630    13.5740 ca         1 7IL      -0.101000
     20 C13         -2.1940    12.8590    12.6500 ca         1 7IL      -0.059300
     21 C14         -0.9080    12.6540    13.1480 ca         1 7IL      -0.101000
     22 C15         -0.6730    12.4740    14.5090 ca         1 7IL      -0.106000
     23 C16         -2.4870    13.0500    11.1610 c3         1 7IL      -0.005700
     24 C17         -3.1990    14.4000    10.9500 c3         1 7IL      -0.083767
     25 C18         -3.4020    11.9080    10.6780 c3         1 7IL      -0.083767
     26 C19         -1.2120    13.0390    10.3110 c3         1 7IL      -0.083767
     27 C20          0.4240    11.0650    17.7760 ca         1 7IL      -0.127300
     28 C21          1.2540    12.1560    17.5420 ca         1 7IL       0.351900
     29 C22          3.0210    11.1850    18.6250 ca         1 7IL       0.337900
     30 C23          2.2710    10.0520    18.9220 ca         1 7IL      -0.161000
     31 C24          0.9560     9.9950    18.4930 ca         1 7IL      -0.050000
     32 N4           2.5260    12.2250    17.9520 nb         1 7IL      -0.665000
     33 H2          -1.6230    10.7580    18.1850 h1         1 7IL       0.087700
     34 H1          -2.8110    15.2400    19.2300 hn         1 7IL       0.373000
     35 H3          -1.5510    15.0940    15.2370 h4         1 7IL       0.050100
     36 H4          -1.5650     8.9950    13.5830 hc         1 7IL       0.046367
     37 H5          -3.1000     8.3770    12.9540 hc         1 7IL       0.046367
     38 H6          -2.9660    10.0680    13.4630 hc         1 7IL       0.046367
     39 H7          -4.9500     8.4970    16.2120 hc         1 7IL       0.046367
     40 H8          -4.9370     9.7820    14.9870 hc         1 7IL       0.046367
     41 H9          -5.0890     8.0880    14.4950 hc         1 7IL       0.046367
     42 H10         -3.0190    17.5800    18.2600 h5         1 7IL       0.061100
     43 H11         -3.2040    10.1030    16.6390 hn         1 7IL       0.312500
     44 H12         -2.9710     6.9330    16.4220 hc         1 7IL       0.046367
     45 H13         -3.0990     6.5200    14.7040 hc         1 7IL       0.046367
     46 H14         -1.5670     7.1190    15.3570 hc         1 7IL       0.046367
     47 H15         -3.8570    12.6560    15.6190 ha         1 7IL       0.126500
     48 H16         -4.2650    12.9990    13.2320 ha         1 7IL       0.120500
     49 H17         -0.0600    12.6360    12.4800 ha         1 7IL       0.120500
     50 H18          0.3380    12.3240    14.8620 ha         1 7IL       0.126500
     51 H19         -4.1410    14.4470    11.4980 hc         1 7IL       0.037589
     52 H20         -2.5670    15.2250    11.2850 hc         1 7IL       0.037589
     53 H21         -3.4180    14.5430     9.8890 hc         1 7IL       0.037589
     54 H22         -4.3500    11.8980    11.2170 hc         1 7IL       0.037589
     55 H23         -3.6180    12.0290     9.6140 hc         1 7IL       0.037589
     56 H24         -2.9190    10.9400    10.8230 hc         1 7IL       0.037589
     57 H25         -0.5280    13.8410    10.5990 hc         1 7IL       0.037589
     58 H26         -0.6810    12.0890    10.3930 hc         1 7IL       0.037589
     59 H27         -1.4770    13.1850     9.2620 hc         1 7IL       0.037589
     60 H28          0.8810    13.0220    17.0100 h4         1 7IL       0.021100
     61 H29          4.0540    11.2610    18.9460 h4         1 7IL       0.018100
     62 H30          2.7120     9.2360    19.4800 ha         1 7IL       0.123000
     63 H31          0.3440     9.1290    18.7120 ha         1 7IL       0.118000
@<TRIPOS>BOND
     1     1     4 1   
     2     1     5 1   
     3     1     8 1   
     4     2     6 1   
     5     2    12 1   
     6     2    34 1   
     7     3     4 1   
     8     3    15 1   
     9     3    17 2   
    10     4    27 1   
    11     4    33 1   
    12     5     6 1   
    13     5    14 2   
    14     6     7 2   
    15     7    13 1   
    16     7    35 1   
    17     8    18 ar  
    18     8    22 ar  
    19     9    10 1   
    20     9    11 1   
    21     9    15 1   
    22     9    16 1   
    23    10    36 1   
    24    10    37 1   
    25    10    38 1   
    26    11    39 1   
    27    11    40 1   
    28    11    41 1   
    29    12    13 2   
    30    12    42 1   
    31    15    43 1   
    32    16    44 1   
    33    16    45 1   
    34    16    46 1   
    35    18    19 ar  
    36    18    47 1   
    37    19    20 ar  
    38    19    48 1   
    39    20    21 ar  
    40    20    23 1   
    41    21    22 ar  
    42    21    49 1   
    43    22    50 1   
    44    23    24 1   
    45    23    25 1   
    46    23    26 1   
    47    24    51 1   
    48    24    52 1   
    49    24    53 1   
    50    25    54 1   
    51    25    55 1   
    52    25    56 1   
    53    26    57 1   
    54    26    58 1   
    55    26    59 1   
    56    27    28 ar  
    57    27    31 ar  
    58    28    32 ar  
    59    28    60 1   
    60    29    30 ar  
    61    29    32 ar  
    62    29    61 1   
    63    30    31 ar  
    64    30    62 1   
    65    31    63 1   
@<TRIPOS>SUBSTRUCTURE
     1 7IL         1 TEMP              0 ****  ****    0 ROOT
