@<TRIPOS>MOLECULE
7IL
   63    65     1     0     0
SMALL
No Charge or Current Charge


@<TRIPOS>ATOM
      1 N1          -1.6530    12.1770    16.8780 n          1 7IL      -0.236400
      2 N3          -2.6010    15.6100    18.3000 na         1 7IL      -0.270500
      3 C4          -1.1430     9.6790    16.3910 c          1 7IL       0.596100
      4 C5          -0.9960    10.9070    17.3430 c3         1 7IL       0.087000
      5 C6          -2.0190    13.1190    17.8850 c          1 7IL       0.652700
      6 C7          -2.1190    14.5620    17.5290 cc         1 7IL      -0.287600
      7 C8          -1.6340    15.1660    16.3920 cd         1 7IL       0.303900
      8 C10         -1.9280    12.3350    15.4670 ca         1 7IL      -0.065000
      9 C1          -2.8570     8.4900    14.9000 c3         1 7IL       0.135400
     10 C2          -2.1000     8.6780    13.5610 c3         1 7IL      -0.104767
     11 C3          -4.3650     8.7320    14.6590 c3         1 7IL      -0.104767
     12 C9          -2.4470    16.7740    17.5930 cc         1 7IL       0.414400
     13 N2          -1.8520    16.5300    16.4360 nd         1 7IL      -0.685000
     14 O1          -2.2240    12.7650    19.0400 o          1 7IL      -0.614100
     15 N           -2.4200     9.4870    15.8830 ns         1 7IL      -0.501900
     16 C           -2.6520     7.0560    15.4480 c3         1 7IL      -0.104767
     17 O           -0.2020     8.9510    16.1010 o          1 7IL      -0.588100
     18 C11         -3.1370    12.9180    15.0440 ca         1 7IL      -0.106000
     19 C12         -3.3770    13.1680    13.6840 ca         1 7IL      -0.101000
     20 C13         -2.3980    12.8890    12.7040 ca         1 7IL      -0.059300
     21 C14         -1.1540    12.3780    13.1460 ca         1 7IL      -0.101000
     22 C15         -0.9190    12.1240    14.5070 ca         1 7IL      -0.106000
     23 C16         -2.7130    13.1580    11.2080 c3         1 7IL      -0.005700
     24 C17         -3.0270    14.6660    11.0130 c3         1 7IL      -0.083767
     25 C18         -3.9470    12.3140    10.7890 c3         1 7IL      -0.083767
     26 C19         -1.5370    12.7870    10.2610 c3         1 7IL      -0.083767
     27 C20          0.4440    11.1060    17.8410 ca         1 7IL      -0.127300
     28 C21          1.2650    12.1500    17.3600 ca         1 7IL       0.351900
     29 C22          3.0340    11.5140    18.7150 ca         1 7IL       0.337900
     30 C23          2.2930    10.4510    19.2550 ca         1 7IL      -0.161000
     31 C24          0.9760    10.2400    18.8160 ca         1 7IL      -0.050000
     32 N4           2.5340    12.3560    17.7840 nb         1 7IL      -0.665000
     33 H2          -1.5710    10.5750    18.2170 h1         1 7IL       0.087700
     34 H1          -3.0080    15.5460    19.2270 hn         1 7IL       0.373000
     35 H3          -1.1140    14.7230    15.5530 h4         1 7IL       0.050100
     36 H4          -1.0260     8.4960    13.6730 hc         1 7IL       0.046367
     37 H5          -2.4770     7.9810    12.8020 hc         1 7IL       0.046367
     38 H6          -2.2350     9.6960    13.1780 hc         1 7IL       0.046367
     39 H7          -4.9350     8.6140    15.5890 hc         1 7IL       0.046367
     40 H8          -4.5430     9.7450    14.2770 hc         1 7IL       0.046367
     41 H9          -4.7640     8.0200    13.9260 hc         1 7IL       0.046367
     42 H10         -2.7640    17.7380    17.9730 h5         1 7IL       0.061100
     43 H11         -3.1030    10.1780    16.1680 hn         1 7IL       0.312500
     44 H12         -3.1460     6.9350    16.4190 hc         1 7IL       0.046367
     45 H13         -3.0750     6.3140    14.7590 hc         1 7IL       0.046367
     46 H14         -1.5900     6.8190    15.5740 hc         1 7IL       0.046367
     47 H15         -3.9140    13.1530    15.7680 ha         1 7IL       0.126500
     48 H16         -4.3390    13.5850    13.3980 ha         1 7IL       0.120500
     49 H17         -0.3480    12.1660    12.4500 ha         1 7IL       0.120500
     50 H18          0.0540    11.7410    14.8010 ha         1 7IL       0.126500
     51 H19         -3.9110    14.9730    11.5850 hc         1 7IL       0.037589
     52 H20         -2.1820    15.2820    11.3420 hc         1 7IL       0.037589
     53 H21         -3.2220    14.8930     9.9580 hc         1 7IL       0.037589
     54 H22         -4.8420    12.5940    11.3560 hc         1 7IL       0.037589
     55 H23         -4.1740    12.4530     9.7250 hc         1 7IL       0.037589
     56 H24         -3.7600    11.2470    10.9590 hc         1 7IL       0.037589
     57 H25         -0.6430    13.3790    10.4890 hc         1 7IL       0.037589
     58 H26         -1.2840    11.7230    10.3440 hc         1 7IL       0.037589
     59 H27         -1.8020    12.9810     9.2150 hc         1 7IL       0.037589
     60 H28          0.8990    12.8580    16.6190 h4         1 7IL       0.021100
     61 H29          4.0570    11.6990    19.0400 h4         1 7IL       0.018100
     62 H30          2.7390     9.8030    20.0040 ha         1 7IL       0.123000
     63 H31          0.3860     9.4210    19.2230 ha         1 7IL       0.118000
@<TRIPOS>BOND
     1     1     4 1   
     2     1     5 1   
     3     1     8 1   
     4     2     6 1   
     5     2    12 1   
     6     2    34 1   
     7     3     4 1   
     8     3    15 1   
     9     3    17 2   
    10     4    27 1   
    11     4    33 1   
    12     5     6 1   
    13     5    14 2   
    14     6     7 2   
    15     7    13 1   
    16     7    35 1   
    17     8    18 ar  
    18     8    22 ar  
    19     9    10 1   
    20     9    11 1   
    21     9    15 1   
    22     9    16 1   
    23    10    36 1   
    24    10    37 1   
    25    10    38 1   
    26    11    39 1   
    27    11    40 1   
    28    11    41 1   
    29    12    13 2   
    30    12    42 1   
    31    15    43 1   
    32    16    44 1   
    33    16    45 1   
    34    16    46 1   
    35    18    19 ar  
    36    18    47 1   
    37    19    20 ar  
    38    19    48 1   
    39    20    21 ar  
    40    20    23 1   
    41    21    22 ar  
    42    21    49 1   
    43    22    50 1   
    44    23    24 1   
    45    23    25 1   
    46    23    26 1   
    47    24    51 1   
    48    24    52 1   
    49    24    53 1   
    50    25    54 1   
    51    25    55 1   
    52    25    56 1   
    53    26    57 1   
    54    26    58 1   
    55    26    59 1   
    56    27    28 ar  
    57    27    31 ar  
    58    28    32 ar  
    59    28    60 1   
    60    29    30 ar  
    61    29    32 ar  
    62    29    61 1   
    63    30    31 ar  
    64    30    62 1   
    65    31    63 1   
@<TRIPOS>SUBSTRUCTURE
     1 7IL         1 TEMP              0 ****  ****    0 ROOT
