@<TRIPOS>MOLECULE
7IM
   88    88     1     0     0
SMALL
No Charge or Current Charge


@<TRIPOS>ATOM
      1 C1           4.5200     0.8310    -2.1650 c          1 7IM       0.599100
      2 N2           4.8760     0.0340    -1.1010 ns         1 7IM      -0.463900
      3 C3           5.5280    -1.2920    -1.2230 c3         1 7IM      -0.033300
      4 C4           6.4240    -1.5920     0.0010 c3         1 7IM      -0.037100
      5 C5           7.4630    -0.5050     0.2580 ca         1 7IM      -0.052300
      6 C6           8.5320    -0.3200    -0.6410 ca         1 7IM      -0.108000
      7 C7           9.4870     0.6850    -0.4110 ca         1 7IM      -0.115500
      8 C8           9.3810     1.5110     0.7200 ca         1 7IM      -0.129000
      9 C9           8.3180     1.3310     1.6210 ca         1 7IM      -0.115500
     10 C10          7.3630     0.3260     1.3920 ca         1 7IM      -0.108000
     11 C11          4.4670    -2.4150    -1.4440 c          1 7IM       0.725000
     12 O12          3.3500    -2.2720    -0.9580 o          1 7IM      -0.721500
     13 O13          4.7670    -3.3520    -2.1700 o          1 7IM      -0.721500
     14 O14          4.8710     0.5860    -3.3110 o          1 7IM      -0.613100
     15 C15          3.6170     2.0010    -1.7970 c3         1 7IM      -0.225700
     16 C16          2.2160     1.6130    -2.2520 c          1 7IM       0.618100
     17 N17          1.3760     1.2040    -1.2430 ns         1 7IM      -0.487900
     18 C18          0.0520     0.5560    -1.4350 c3         1 7IM      -0.000300
     19 C19         -0.9270     0.9890    -0.3120 c          1 7IM       0.608100
     20 N20         -2.2550     0.6840    -0.5390 ns         1 7IM      -0.504900
     21 C21         -3.3780     0.9910     0.3860 c3         1 7IM       0.002700
     22 C22         -4.3880    -0.1850     0.3810 c          1 7IM       0.589100
     23 N23         -5.2190    -0.2250     1.4760 ns         1 7IM      -0.485900
     24 C24         -6.4370    -1.0370     1.5890 c3         1 7IM       0.082700
     25 C25         -7.6850    -0.2400     1.0830 c3         1 7IM       0.153300
     26 C26         -7.7380    -0.1070    -0.4590 c3         1 7IM      -0.119400
     27 C27         -9.0510     0.5140    -0.9770 c3         1 7IM       0.164600
     28 O28         -9.0380     0.5360    -2.4080 oh         1 7IM      -0.664000
     29 O29         -7.6920     1.0790     1.6560 oh         1 7IM      -0.664000
     30 C30         -6.6140    -1.5430     3.0470 c3         1 7IM      -0.081400
     31 C31         -5.4250    -2.3640     3.6260 c3         1 7IM      -0.059700
     32 C32         -5.6760    -2.7210     5.1090 c3         1 7IM      -0.087100
     33 C33         -5.1170    -3.6370     2.8010 c3         1 7IM      -0.087100
     34 O34         -4.4540    -1.0130    -0.5200 o          1 7IM      -0.634100
     35 C35         -4.0930     2.3310     0.0250 c3         1 7IM       0.175300
     36 O36         -5.1660     2.5920     0.9430 oh         1 7IM      -0.669000
     37 C37         -3.1550     3.5570     0.0260 c3         1 7IM      -0.092100
     38 O38         -0.5660     1.5810     0.6990 o          1 7IM      -0.602100
     39 C39          0.1610    -0.9990    -1.5050 c3         1 7IM       0.196300
     40 C40          0.8010    -1.5150    -2.8090 c3         1 7IM      -0.126100
     41 O41          0.9010    -1.5020    -0.3850 oh         1 7IM      -0.708000
     42 O42          1.8610     1.6310    -3.4220 o          1 7IM      -0.646100
     43 C43          4.1030     3.3650    -2.3480 c3         1 7IM      -0.063100
     44 HN2          4.5440     0.3150    -0.1870 hn         1 7IM       0.300500
     45 H3           6.1660    -1.2820    -2.1160 h1         1 7IM       0.078700
     46 H4           5.7860    -1.7280     0.8830 hc         1 7IM       0.059700
     47 H4A          6.9280    -2.5540    -0.1560 hc         1 7IM       0.059700
     48 H6           8.6210    -0.9550    -1.5190 ha         1 7IM       0.111000
     49 H7          10.3090     0.8230    -1.1100 ha         1 7IM       0.100000
     50 H8          10.1200     2.2890     0.8980 ha         1 7IM       0.098000
     51 H9           8.2350     1.9710     2.4980 ha         1 7IM       0.100000
     52 H10          6.5430     0.1970     2.0950 ha         1 7IM       0.111000
     53 H15          3.5990     2.0640    -0.7020 hc         1 7IM       0.064700
     54 HN17         1.7330     1.2610    -0.2950 hn         1 7IM       0.388500
     55 H18         -0.3870     0.9160    -2.3750 h1         1 7IM       0.079700
     56 HN20        -2.4700     0.1700    -1.3870 hn         1 7IM       0.321500
     57 H21         -2.9830     1.0690     1.4070 h1         1 7IM       0.085700
     58 HN23        -5.0810     0.5140     2.1560 hn         1 7IM       0.330500
     59 H24         -6.3320    -1.9220     0.9460 h1         1 7IM       0.084700
     60 H25         -8.5830    -0.7920     1.3950 h1         1 7IM       0.068700
     61 H26         -6.8950     0.4970    -0.8120 hc         1 7IM       0.066200
     62 H26A        -7.6240    -1.1030    -0.9040 hc         1 7IM       0.066200
     63 H27         -9.9010    -0.0800    -0.6160 h1         1 7IM       0.018700
     64 H27A        -9.1590     1.5340    -0.5840 h1         1 7IM       0.018700
     65 HO28        -9.8870     0.9400    -2.6950 ho         1 7IM       0.436000
     66 HO29        -6.8540     1.5150     1.3710 ho         1 7IM       0.441000
     67 H30         -6.7910    -0.6770     3.6980 hc         1 7IM       0.042200
     68 H30A        -7.5220    -2.1560     3.0970 hc         1 7IM       0.042200
     69 H31         -4.5280    -1.7320     3.6010 hc         1 7IM       0.079700
     70 H32         -6.5590    -3.3640     5.2130 hc         1 7IM       0.035033
     71 H32A        -4.8140    -3.2520     5.5320 hc         1 7IM       0.035033
     72 H32B        -5.8390    -1.8150     5.7050 hc         1 7IM       0.035033
     73 H33         -4.7960    -3.3820     1.7840 hc         1 7IM       0.035033
     74 H33A        -4.3070    -4.2120     3.2660 hc         1 7IM       0.035033
     75 H33B        -6.0000    -4.2830     2.7340 hc         1 7IM       0.035033
     76 H35         -4.5030     2.2300    -0.9890 h1         1 7IM       0.042700
     77 HO36        -5.3920     3.5450     0.8520 ho         1 7IM       0.459000
     78 H37         -2.3720     3.4510    -0.7340 hc         1 7IM       0.044367
     79 H37A        -3.7110     4.4740    -0.2020 hc         1 7IM       0.044367
     80 H37B        -2.6730     3.6790     1.0040 hc         1 7IM       0.044367
     81 H39         -0.8580    -1.4090    -1.4740 h1         1 7IM       0.031700
     82 H40          1.8310    -1.1590    -2.9210 hc         1 7IM       0.045033
     83 H40A         0.8130    -2.6110    -2.8240 hc         1 7IM       0.045033
     84 H40B         0.2260    -1.1720    -3.6770 hc         1 7IM       0.045033
     85 HO41         1.8140    -1.7740    -0.7110 ho         1 7IM       0.525000
     86 H43          3.4270     4.1700    -2.0360 hc         1 7IM       0.041367
     87 H43A         5.1070     3.5960    -1.9710 hc         1 7IM       0.041367
     88 H43B         4.1430     3.3560    -3.4440 hc         1 7IM       0.041367
@<TRIPOS>BOND
     1     1     2 1   
     2     1    14 2   
     3     1    15 1   
     4     2     3 1   
     5     2    44 1   
     6     3     4 1   
     7     3    11 1   
     8     3    45 1   
     9     4     5 1   
    10     4    46 1   
    11     4    47 1   
    12     5     6 ar  
    13     5    10 ar  
    14     6     7 ar  
    15     6    48 1   
    16     7     8 ar  
    17     7    49 1   
    18     8     9 ar  
    19     8    50 1   
    20     9    10 ar  
    21     9    51 1   
    22    10    52 1   
    23    11    12 1   
    24    11    13 1   
    25    15    16 1   
    26    15    43 1   
    27    15    53 1   
    28    16    17 1   
    29    16    42 2   
    30    17    18 1   
    31    17    54 1   
    32    18    19 1   
    33    18    39 1   
    34    18    55 1   
    35    19    20 1   
    36    19    38 2   
    37    20    21 1   
    38    20    56 1   
    39    21    22 1   
    40    21    35 1   
    41    21    57 1   
    42    22    23 1   
    43    22    34 2   
    44    23    24 1   
    45    23    58 1   
    46    24    25 1   
    47    24    30 1   
    48    24    59 1   
    49    25    26 1   
    50    25    29 1   
    51    25    60 1   
    52    26    27 1   
    53    26    61 1   
    54    26    62 1   
    55    27    28 1   
    56    27    63 1   
    57    27    64 1   
    58    28    65 1   
    59    29    66 1   
    60    30    31 1   
    61    30    67 1   
    62    30    68 1   
    63    31    32 1   
    64    31    33 1   
    65    31    69 1   
    66    32    70 1   
    67    32    71 1   
    68    32    72 1   
    69    33    73 1   
    70    33    74 1   
    71    33    75 1   
    72    35    36 1   
    73    35    37 1   
    74    35    76 1   
    75    36    77 1   
    76    37    78 1   
    77    37    79 1   
    78    37    80 1   
    79    39    40 1   
    80    39    41 1   
    81    39    81 1   
    82    40    82 1   
    83    40    83 1   
    84    40    84 1   
    85    41    85 1   
    86    43    86 1   
    87    43    87 1   
    88    43    88 1   
@<TRIPOS>SUBSTRUCTURE
     1 7IM         1 TEMP              0 ****  ****    0 ROOT
