@<TRIPOS>MOLECULE
7IM
   88    88     1     0     0
SMALL
abcg2


@<TRIPOS>ATOM
      1 C1           3.6490     0.8470    -0.9070 c          1 7IM       0.599100
      2 N2           3.4620     0.1930     0.2500 ns         1 7IM      -0.463900
      3 C3           3.5410    -1.2410     0.3660 c3         1 7IM      -0.033300
      4 C4           3.9280    -1.6350     1.7970 c3         1 7IM      -0.037100
      5 C5           5.2690    -1.0840     2.1920 ca         1 7IM      -0.052300
      6 C6           6.4400    -1.7230     1.7900 ca         1 7IM      -0.108000
      7 C7           7.6840    -1.2030     2.1170 ca         1 7IM      -0.115500
      8 C8           7.7770    -0.0280     2.8530 ca         1 7IM      -0.129000
      9 C9           6.6180     0.6170     3.2620 ca         1 7IM      -0.115500
     10 C10          5.3750     0.0910     2.9320 ca         1 7IM      -0.108000
     11 C11          2.2190    -1.9330    -0.0610 c          1 7IM       0.725000
     12 O12          1.2570    -1.1750    -0.3430 o          1 7IM      -0.721500
     13 O13          2.2290    -3.1660    -0.0800 o          1 7IM      -0.721500
     14 O14          4.1560     0.3390    -1.8970 o          1 7IM      -0.613100
     15 C15          3.1590     2.2870    -0.9250 c3         1 7IM      -0.225700
     16 C16          1.8580     2.3730    -1.7350 c          1 7IM       0.618100
     17 N17          0.9890     1.3730    -1.5280 ns         1 7IM      -0.487900
     18 C18         -0.2680     1.2690    -2.2150 c3         1 7IM      -0.000300
     19 C19         -1.4200     1.4850    -1.2340 c          1 7IM       0.608100
     20 N20         -2.6300     1.6250    -1.8100 ns         1 7IM      -0.504900
     21 C21         -3.8390     1.8140    -1.0440 c3         1 7IM       0.002700
     22 C22         -4.4460     0.4550    -0.6890 c          1 7IM       0.589100
     23 N23         -4.1780     0.0260     0.5500 ns         1 7IM      -0.485900
     24 C24         -4.6470    -1.2280     1.1120 c3         1 7IM       0.082700
     25 C25         -5.8250    -0.9910     2.0720 c3         1 7IM       0.153300
     26 C26         -7.0190    -0.3430     1.3790 c3         1 7IM      -0.119400
     27 C27         -8.2370    -0.2540     2.2790 c3         1 7IM       0.164600
     28 O28         -9.2950     0.3270     1.5440 oh         1 7IM      -0.664000
     29 O29         -5.4330    -0.2670     3.2210 oh         1 7IM      -0.664000
     30 C30         -3.5030    -1.9730     1.7940 c3         1 7IM      -0.081400
     31 C31         -2.3160    -2.3160     0.8950 c3         1 7IM      -0.059700
     32 C32         -1.2500    -3.0410     1.7110 c3         1 7IM      -0.087100
     33 C33         -2.7280    -3.1610    -0.3050 c3         1 7IM      -0.087100
     34 O34         -5.1150    -0.1650    -1.5060 o          1 7IM      -0.634100
     35 C35         -4.8470     2.6650    -1.8270 c3         1 7IM       0.175300
     36 O36         -6.0710     2.7110    -1.1240 oh         1 7IM      -0.669000
     37 C37         -4.3450     4.0850    -2.0060 c3         1 7IM      -0.092100
     38 O38         -1.2510     1.5520    -0.0290 o          1 7IM      -0.602100
     39 C39         -0.4310    -0.0840    -2.9530 c3         1 7IM       0.196300
     40 C40          0.7760    -0.3760    -3.8330 c3         1 7IM      -0.126100
     41 O41         -0.7530    -1.1360    -2.0900 oh         1 7IM      -0.708000
     42 O42          1.6430     3.3140    -2.4840 o          1 7IM      -0.646100
     43 C43          4.2280     3.2200    -1.4730 c3         1 7IM      -0.063100
     44 HN2          2.9650     0.6760     0.9820 hn         1 7IM       0.300500
     45 H3           4.3260    -1.5900    -0.3070 h1         1 7IM       0.078700
     46 H4           3.1590    -1.2860     2.4930 hc         1 7IM       0.059700
     47 H4A          3.9360    -2.7230     1.8540 hc         1 7IM       0.059700
     48 H6           6.3790    -2.6420     1.2170 ha         1 7IM       0.111000
     49 H7           8.5830    -1.7170     1.8010 ha         1 7IM       0.100000
     50 H8           8.7470     0.3800     3.1070 ha         1 7IM       0.098000
     51 H9           6.6790     1.5310     3.8390 ha         1 7IM       0.100000
     52 H10          4.4760     0.6000     3.2600 ha         1 7IM       0.111000
     53 H15          2.9080     2.6030     0.0930 hc         1 7IM       0.064700
     54 HN17         1.2210     0.5980    -0.9010 hn         1 7IM       0.388500
     55 H18         -0.3050     2.0570    -2.9710 h1         1 7IM       0.079700
     56 HN20        -2.7210     1.4890    -2.8060 hn         1 7IM       0.321500
     57 H21         -3.5750     2.3540    -0.1320 h1         1 7IM       0.085700
     58 HN23        -3.5390     0.5770     1.1040 hn         1 7IM       0.330500
     59 H24         -5.0250    -1.8310     0.2850 h1         1 7IM       0.084700
     60 H25         -6.1300    -1.9780     2.4380 h1         1 7IM       0.068700
     61 H26         -6.7460     0.6600     1.0330 hc         1 7IM       0.066200
     62 H26A        -7.2680    -0.9260     0.4880 hc         1 7IM       0.066200
     63 H27         -8.5020    -1.2610     2.6300 h1         1 7IM       0.018700
     64 H27A        -7.9980     0.3390     3.1690 h1         1 7IM       0.018700
     65 HO28       -10.0570     0.4000     2.1260 ho         1 7IM       0.436000
     66 HO29        -5.2960     0.6530     2.9680 ho         1 7IM       0.441000
     67 H30         -3.1530    -1.3890     2.6510 hc         1 7IM       0.042200
     68 H30A        -3.9140    -2.9020     2.2080 hc         1 7IM       0.042200
     69 H31         -1.8740    -1.3890     0.5170 hc         1 7IM       0.079700
     70 H32         -1.6170    -4.0090     2.0630 hc         1 7IM       0.035033
     71 H32A        -0.3530    -3.2120     1.1160 hc         1 7IM       0.035033
     72 H32B        -0.9570    -2.4630     2.5900 hc         1 7IM       0.035033
     73 H33         -3.3690    -2.6110    -0.9960 hc         1 7IM       0.035033
     74 H33A        -1.8530    -3.4830    -0.8690 hc         1 7IM       0.035033
     75 H33B        -3.2660    -4.0580     0.0160 hc         1 7IM       0.035033
     76 H35         -4.9930     2.2150    -2.8180 h1         1 7IM       0.042700
     77 HO36        -6.5730     1.9180    -1.3370 ho         1 7IM       0.459000
     78 H37         -3.3910     4.0980    -2.5310 hc         1 7IM       0.044367
     79 H37A        -5.0550     4.6700    -2.5910 hc         1 7IM       0.044367
     80 H37B        -4.2060     4.5780    -1.0420 hc         1 7IM       0.044367
     81 H39         -1.2950     0.0340    -3.6170 h1         1 7IM       0.031700
     82 H40          1.6910    -0.4830    -3.2510 hc         1 7IM       0.045033
     83 H40A         0.6160    -1.2990    -4.3910 hc         1 7IM       0.045033
     84 H40B         0.9340     0.4260    -4.5570 hc         1 7IM       0.045033
     85 HO41        -0.0280    -1.2750    -1.4360 ho         1 7IM       0.525000
     86 H43          3.8750     4.2490    -1.4830 hc         1 7IM       0.041367
     87 H43A         5.1180     3.1820    -0.8430 hc         1 7IM       0.041367
     88 H43B         4.5180     2.9470    -2.4860 hc         1 7IM       0.041367
@<TRIPOS>BOND
     1     1     2 1   
     2     1    14 2   
     3     1    15 1   
     4     2     3 1   
     5     2    44 1   
     6     3     4 1   
     7     3    11 1   
     8     3    45 1   
     9     4     5 1   
    10     4    46 1   
    11     4    47 1   
    12     5     6 ar  
    13     5    10 ar  
    14     6     7 ar  
    15     6    48 1   
    16     7     8 ar  
    17     7    49 1   
    18     8     9 ar  
    19     8    50 1   
    20     9    10 ar  
    21     9    51 1   
    22    10    52 1   
    23    11    12 1   
    24    11    13 1   
    25    15    16 1   
    26    15    43 1   
    27    15    53 1   
    28    16    17 1   
    29    16    42 2   
    30    17    18 1   
    31    17    54 1   
    32    18    19 1   
    33    18    39 1   
    34    18    55 1   
    35    19    20 1   
    36    19    38 2   
    37    20    21 1   
    38    20    56 1   
    39    21    22 1   
    40    21    35 1   
    41    21    57 1   
    42    22    23 1   
    43    22    34 2   
    44    23    24 1   
    45    23    58 1   
    46    24    25 1   
    47    24    30 1   
    48    24    59 1   
    49    25    26 1   
    50    25    29 1   
    51    25    60 1   
    52    26    27 1   
    53    26    61 1   
    54    26    62 1   
    55    27    28 1   
    56    27    63 1   
    57    27    64 1   
    58    28    65 1   
    59    29    66 1   
    60    30    31 1   
    61    30    67 1   
    62    30    68 1   
    63    31    32 1   
    64    31    33 1   
    65    31    69 1   
    66    32    70 1   
    67    32    71 1   
    68    32    72 1   
    69    33    73 1   
    70    33    74 1   
    71    33    75 1   
    72    35    36 1   
    73    35    37 1   
    74    35    76 1   
    75    36    77 1   
    76    37    78 1   
    77    37    79 1   
    78    37    80 1   
    79    39    40 1   
    80    39    41 1   
    81    39    81 1   
    82    40    82 1   
    83    40    83 1   
    84    40    84 1   
    85    41    85 1   
    86    43    86 1   
    87    43    87 1   
    88    43    88 1   
@<TRIPOS>SUBSTRUCTURE
     1 7IM         1 TEMP              0 ****  ****    0 ROOT
