@<TRIPOS>MOLECULE
7IN
   60    61     1     0     0
SMALL
bcc


@<TRIPOS>ATOM
      1 O2          -2.0810     0.4680     2.4330 oh         1 7IN      -0.596800
      2 C3          -1.3270     1.4310     1.7410 c3         1 7IN       0.119400
      3 C4          -0.2400     0.7050     0.9540 c3         1 7IN       0.035700
      4 N5          -0.7820    -0.1260    -0.0890 ns         1 7IN      -0.547900
      5 C6          -1.1460     0.3530    -1.2860 c          1 7IN       0.659100
      6 C7          -1.7470    -0.6970    -2.2270 c3         1 7IN       0.149500
      7 N8          -1.8340    -0.2100    -3.5880 n7         1 7IN      -0.831100
      8 S9          -0.4440     0.1080    -4.4260 s6         1 7IN       1.212900
      9 C10         -0.5580    -1.0340    -5.8090 c3         1 7IN      -0.136300
     10 C11          0.6290    -0.8680    -6.7050 ca         1 7IN      -0.083300
     11 C12          0.5900     0.0360    -7.7630 ca         1 7IN      -0.102500
     12 C13          1.6950     0.2020    -8.5840 ca         1 7IN      -0.128000
     13 C14          2.8530    -0.5280    -8.3500 ca         1 7IN      -0.117000
     14 C15          2.9000    -1.4280    -7.2930 ca         1 7IN      -0.128000
     15 C16          1.7940    -1.5930    -6.4720 ca         1 7IN      -0.102500
     16 O17         -0.4960     1.4600    -4.9610 o          1 7IN      -0.600300
     17 O18          0.6900    -0.2960    -3.6030 o          1 7IN      -0.600300
     18 C19         -3.1410    -1.0950    -1.7610 c3         1 7IN       0.140400
     19 O20         -3.9340     0.0650    -1.7330 oh         1 7IN      -0.595800
     20 O21         -1.0300     1.5210    -1.6150 o          1 7IN      -0.600100
     21 C22          0.5870    -0.1790     1.8890 c          1 7IN       0.673100
     22 O23          0.5430    -1.3970     1.8290 o          1 7IN      -0.594100
     23 N24          1.3370     0.4990     2.7690 ns         1 7IN      -0.568900
     24 C25          2.1450    -0.1240     3.7860 c3         1 7IN       0.144300
     25 C26          1.5090    -0.1490     5.1560 ca         1 7IN      -0.093300
     26 C27          2.3250    -0.2000     6.2820 ca         1 7IN      -0.123500
     27 C28          1.7820    -0.2660     7.5550 ca         1 7IN      -0.105500
     28 C29          0.4000    -0.2930     7.7320 ca         1 7IN      -0.196900
     29 C30         -0.4170    -0.2370     6.6050 ca         1 7IN      -0.105500
     30 C31          0.1290    -0.1600     5.3330 ca         1 7IN      -0.123500
     31 C32         -0.2070    -0.4010     9.0880 ce         1 7IN       0.659800
     32 N33         -1.2710    -1.0560     9.3550 n2         1 7IN      -0.843100
     33 N34          0.4890     0.2230    10.0810 nv         1 7IN      -0.921800
     34 HO2         -2.7530     0.9220     2.9490 ho         1 7IN       0.409000
     35 H31A        -0.8580     2.1550     2.4180 h1         1 7IN       0.037700
     36 H32         -1.9400     2.0070     1.0380 h1         1 7IN       0.037700
     37 H4           0.4110     1.4620     0.5070 h1         1 7IN       0.093700
     38 HN5         -0.8650    -1.1120     0.1080 hn         1 7IN       0.345500
     39 H7          -1.1330    -1.6000    -2.2090 h1         1 7IN       0.091700
     40 HN8         -2.5330     0.5110    -3.7290 hn         1 7IN       0.453800
     41 H101        -1.4980    -0.8160    -6.3160 h1         1 7IN       0.098200
     42 H102        -0.6210    -2.0350    -5.3790 h1         1 7IN       0.098200
     43 H12         -0.3120     0.6050    -7.9520 ha         1 7IN       0.137000
     44 H13          1.6530     0.9020    -9.4080 ha         1 7IN       0.133000
     45 H14          3.7150    -0.3990    -8.9910 ha         1 7IN       0.131000
     46 H15          3.7980    -2.0020    -7.1080 ha         1 7IN       0.133000
     47 H16          1.8330    -2.3000    -5.6520 ha         1 7IN       0.137000
     48 H191        -3.0630    -1.5640    -0.7730 h1         1 7IN       0.036700
     49 H192        -3.5340    -1.8510    -2.4490 h1         1 7IN       0.036700
     50 H20         -4.8500    -0.1920    -1.5920 ho         1 7IN       0.413000
     51 H24          1.3330     1.5070     2.7400 hn         1 7IN       0.316500
     52 H251         2.3680    -1.1450     3.4710 h1         1 7IN       0.069200
     53 H252         3.1000     0.4000     3.8370 h1         1 7IN       0.069200
     54 H27          3.4020    -0.1890     6.1660 ha         1 7IN       0.140500
     55 H28          2.4430    -0.3130     8.4100 ha         1 7IN       0.139000
     56 H30         -1.4950    -0.2340     6.7160 ha         1 7IN       0.139000
     57 H31         -0.5360    -0.0990     4.4810 ha         1 7IN       0.140500
     58 H33         -1.6040    -1.5470     8.5340 hn         1 7IN       0.389400
     59 H341         0.0350     0.2660    10.9790 hn         1 7IN       0.412300
     60 H342         1.0180     1.0470     9.8470 hn         1 7IN       0.412300
@<TRIPOS>BOND
     1     1     2 1   
     2     1    34 1   
     3     2     3 1   
     4     2    35 1   
     5     2    36 1   
     6     3     4 1   
     7     3    21 1   
     8     3    37 1   
     9     4     5 1   
    10     4    38 1   
    11     5     6 1   
    12     5    20 2   
    13     6     7 1   
    14     6    18 1   
    15     6    39 1   
    16     7     8 1   
    17     7    40 1   
    18     8     9 1   
    19     8    16 2   
    20     8    17 2   
    21     9    10 1   
    22     9    41 1   
    23     9    42 1   
    24    10    11 ar  
    25    10    15 ar  
    26    11    12 ar  
    27    11    43 1   
    28    12    13 ar  
    29    12    44 1   
    30    13    14 ar  
    31    13    45 1   
    32    14    15 ar  
    33    14    46 1   
    34    15    47 1   
    35    18    19 1   
    36    18    48 1   
    37    18    49 1   
    38    19    50 1   
    39    21    22 2   
    40    21    23 1   
    41    23    24 1   
    42    23    51 1   
    43    24    25 1   
    44    24    52 1   
    45    24    53 1   
    46    25    26 ar  
    47    25    30 ar  
    48    26    27 ar  
    49    26    54 1   
    50    27    28 ar  
    51    27    55 1   
    52    28    29 ar  
    53    28    31 1   
    54    29    30 ar  
    55    29    56 1   
    56    30    57 1   
    57    31    32 2   
    58    31    33 1   
    59    32    58 1   
    60    33    59 1   
    61    33    60 1   
@<TRIPOS>SUBSTRUCTURE
     1 7IN         1 TEMP              0 ****  ****    0 ROOT
