@<TRIPOS>MOLECULE
7IN
   60    61     1     0     0
SMALL
No Charge or Current Charge


@<TRIPOS>ATOM
      1 O2          -2.4720     0.3100     2.5240 oh         1 7IN      -0.659000
      2 C3          -1.7790     1.3880     1.8750 c3         1 7IN       0.142600
      3 C4          -0.7090     0.8450     0.8880 c3         1 7IN       0.035700
      4 N5          -1.3060    -0.0310    -0.1530 ns         1 7IN      -0.480900
      5 C6          -2.0970     0.4070    -1.1980 c          1 7IN       0.592100
      6 C7          -2.6480    -0.7210    -2.1420 c3         1 7IN       0.149500
      7 N8          -2.1530    -0.6610    -3.5600 n7         1 7IN      -0.886300
      8 S9          -0.5150    -0.6390    -3.8580 s6         1 7IN       1.182100
      9 C10         -0.4600    -0.7840    -5.6520 c3         1 7IN      -0.247100
     10 C11          0.9480    -0.8150    -6.2360 ca         1 7IN      -0.083300
     11 C12          1.5940     0.3850    -6.5940 ca         1 7IN      -0.084500
     12 C13          2.8920     0.3560    -7.1330 ca         1 7IN      -0.110000
     13 C14          3.5510    -0.8710    -7.3170 ca         1 7IN      -0.099000
     14 C15          2.9100    -2.0700    -6.9630 ca         1 7IN      -0.110000
     15 C16          1.6120    -2.0420    -6.4240 ca         1 7IN      -0.084500
     16 O17         -0.0340     0.6780    -3.4420 o          1 7IN      -0.529500
     17 O18          0.0220    -1.8630    -3.2600 o          1 7IN      -0.529500
     18 C19         -4.2030    -0.7440    -2.1250 c3         1 7IN       0.163600
     19 O20         -4.7620     0.3400    -2.8950 oh         1 7IN      -0.658000
     20 O21         -2.3180     1.6010    -1.3680 o          1 7IN      -0.600100
     21 C22          0.4340     0.1030     1.6340 c          1 7IN       0.606100
     22 O23          0.6650    -1.0910     1.4790 o          1 7IN      -0.594100
     23 N24          1.2020     0.8880     2.4710 ns         1 7IN      -0.501900
     24 C25          2.3110     0.3950     3.2900 c3         1 7IN       0.144300
     25 C26          1.8630     0.1240     4.7190 ca         1 7IN      -0.093300
     26 C27          2.0240     1.1030     5.7150 ca         1 7IN      -0.105500
     27 C28          1.6080     0.8520     7.0350 ca         1 7IN      -0.087500
     28 C29          1.0080    -0.3810     7.3830 ca         1 7IN      -0.196900
     29 C30          0.8680    -1.3660     6.3770 ca         1 7IN      -0.087500
     30 C31          1.2840    -1.1110     5.0590 ca         1 7IN      -0.105500
     31 C32          0.6040    -0.6650     8.7950 ce         1 7IN       0.659800
     32 N33          0.4870    -1.8350     9.2680 n2         1 7IN      -0.843100
     33 N34          0.1950     0.3680     9.5530 nv         1 7IN      -1.032200
     34 HO2         -3.1530     0.7130     3.1080 ho         1 7IN       0.448000
     35 H31A        -1.2950     2.0340     2.6190 h1         1 7IN       0.037700
     36 H32         -2.4910     2.0120     1.3190 h1         1 7IN       0.037700
     37 H4          -0.2420     1.7030     0.3880 h1         1 7IN       0.093700
     38 HN5         -1.1430    -1.0300    -0.0750 hn         1 7IN       0.345500
     39 H7          -2.3260    -1.6720    -1.6940 h1         1 7IN       0.091700
     40 HN8         -2.4420     0.2400    -3.9430 hn         1 7IN       0.509000
     41 H101        -1.0220     0.0680    -6.0470 h1         1 7IN       0.098200
     42 H102        -0.9990    -1.7060    -5.8940 h1         1 7IN       0.098200
     43 H12          1.0910     1.3390    -6.4540 ha         1 7IN       0.119000
     44 H13          3.3870     1.2860    -7.4070 ha         1 7IN       0.115000
     45 H14          4.5560    -0.8930    -7.7340 ha         1 7IN       0.113000
     46 H15          3.4190    -3.0210    -7.1060 ha         1 7IN       0.115000
     47 H16          1.1230    -2.9750    -6.1520 ha         1 7IN       0.119000
     48 H191        -4.5530    -0.6990    -1.0840 h1         1 7IN       0.036700
     49 H192        -4.5370    -1.7030    -2.5410 h1         1 7IN       0.036700
     50 H20         -5.7380     0.2200    -2.8940 ho         1 7IN       0.452000
     51 H24          0.9570     1.8680     2.5400 hn         1 7IN       0.316500
     52 H251         2.7260    -0.5210     2.8500 h1         1 7IN       0.069200
     53 H252         3.1100     1.1490     3.2900 h1         1 7IN       0.069200
     54 H27          2.4770     2.0610     5.4700 ha         1 7IN       0.122500
     55 H28          1.7660     1.6220     7.7870 ha         1 7IN       0.121000
     56 H30          0.4180    -2.3310     6.6040 ha         1 7IN       0.121000
     57 H31          1.1530    -1.8780     4.2970 ha         1 7IN       0.122500
     58 H33          0.8840    -2.4890     8.5810 hn         1 7IN       0.389400
     59 H341        -0.3660     0.0890    10.3490 hn         1 7IN       0.467500
     60 H342        -0.1310     1.1800     9.0440 hn         1 7IN       0.467500
@<TRIPOS>BOND
     1     1     2 1   
     2     1    34 1   
     3     2     3 1   
     4     2    35 1   
     5     2    36 1   
     6     3     4 1   
     7     3    21 1   
     8     3    37 1   
     9     4     5 1   
    10     4    38 1   
    11     5     6 1   
    12     5    20 2   
    13     6     7 1   
    14     6    18 1   
    15     6    39 1   
    16     7     8 1   
    17     7    40 1   
    18     8     9 1   
    19     8    16 2   
    20     8    17 2   
    21     9    10 1   
    22     9    41 1   
    23     9    42 1   
    24    10    11 ar  
    25    10    15 ar  
    26    11    12 ar  
    27    11    43 1   
    28    12    13 ar  
    29    12    44 1   
    30    13    14 ar  
    31    13    45 1   
    32    14    15 ar  
    33    14    46 1   
    34    15    47 1   
    35    18    19 1   
    36    18    48 1   
    37    18    49 1   
    38    19    50 1   
    39    21    22 2   
    40    21    23 1   
    41    23    24 1   
    42    23    51 1   
    43    24    25 1   
    44    24    52 1   
    45    24    53 1   
    46    25    26 ar  
    47    25    30 ar  
    48    26    27 ar  
    49    26    54 1   
    50    27    28 ar  
    51    27    55 1   
    52    28    29 ar  
    53    28    31 1   
    54    29    30 ar  
    55    29    56 1   
    56    30    57 1   
    57    31    32 2   
    58    31    33 1   
    59    32    58 1   
    60    33    59 1   
    61    33    60 1   
@<TRIPOS>SUBSTRUCTURE
     1 7IN         1 TEMP              0 ****  ****    0 ROOT
