@<TRIPOS>MOLECULE
7IO
   53    58     1     0     0
SMALL
No Charge or Current Charge


@<TRIPOS>ATOM
      1 C18         24.6210    -2.9090    -7.5560 ca         1 7IO      -0.074000
      2 C17         24.9860    -3.1590    -6.2120 ca         1 7IO      -0.058000
      3 C16         25.2010    -2.0660    -5.3270 ca         1 7IO       0.266000
      4 C14         25.6390    -3.5080    -3.5550 ca         1 7IO       0.350900
      5 C13         25.4460    -4.6380    -4.3580 ca         1 7IO      -0.164000
      6 C12         25.1250    -4.4780    -5.7150 ca         1 7IO       0.040200
      7 C11         24.9510    -5.6690    -6.5430 cc         1 7IO      -0.208000
      8 C10         24.0370    -6.6710    -6.2400 cd         1 7IO      -0.042900
      9 C19         24.4910    -1.5930    -8.0250 ca         1 7IO      -0.112000
     10 C02         28.2210    -9.3740   -13.4980 ca         1 7IO       0.314000
     11 C03         27.7360   -10.1350   -12.4190 ca         1 7IO      -0.168500
     12 C04         27.2090    -9.5100   -11.2760 ca         1 7IO      -0.062000
     13 C05         27.1510    -8.0980   -11.1750 cp         1 7IO      -0.081000
     14 C06         26.5910    -7.4290    -9.9570 cp         1 7IO      -0.050000
     15 C07         25.5400    -8.0270    -9.2030 ca         1 7IO      -0.064000
     16 C08         25.0900    -7.3190    -8.0870 ca         1 7IO       0.008100
     17 C20         24.7180    -0.5140    -7.1600 ca         1 7IO      -0.101000
     18 C21         25.0670    -0.7540    -5.8210 ca         1 7IO      -0.087000
     19 C22         25.6380    -6.1040    -7.7410 ca         1 7IO       0.332800
     20 C24         27.0950    -6.1640    -9.5010 ca         1 7IO       0.328900
     21 C25         27.6460    -7.3410   -12.2660 ca         1 7IO      -0.062000
     22 C26         28.1720    -7.9700   -13.4070 ca         1 7IO      -0.168500
     23 C27         29.7720    -9.3560   -15.5100 c6         1 7IO       0.162300
     24 C28         30.6130   -10.3780   -16.3450 c6         1 7IO       0.141300
     25 C30         28.8170   -12.0420   -16.1980 c6         1 7IO       0.141300
     26 C31         27.9360   -11.0570   -15.3600 c6         1 7IO       0.162300
     27 N01         28.7490   -10.0230   -14.6400 nh         1 7IO      -0.790400
     28 N15         25.5240    -2.2470    -4.0240 nb         1 7IO      -0.658000
     29 N23         26.6390    -5.4970    -8.4050 nb         1 7IO      -0.610000
     30 N29         29.7640   -11.3360   -17.1110 n7         1 7IO      -0.838400
     31 O09         24.1200    -7.6640    -7.1900 os         1 7IO      -0.159200
     32 H1          24.4270    -3.7270    -8.2440 ha         1 7IO       0.121000
     33 H2          25.8970    -3.6130    -2.5020 h4         1 7IO       0.018100
     34 H3          25.5620    -5.6290    -3.9280 ha         1 7IO       0.122000
     35 H4          23.3170    -6.7830    -5.4330 h4         1 7IO       0.247000
     36 H5          24.2120    -1.4100    -9.0610 ha         1 7IO       0.113000
     37 H7          26.8590   -10.1320   -10.4550 ha         1 7IO       0.113000
     38 H8          25.0950    -8.9790    -9.4770 ha         1 7IO       0.138000
     39 H9          24.6170     0.5070    -7.5220 ha         1 7IO       0.115000
     40 H10         25.2330     0.0870    -5.1530 ha         1 7IO       0.130000
     41 H11         27.9090    -5.6760   -10.0340 h4         1 7IO       0.026100
     42 H12         27.6080    -6.2550   -12.2380 ha         1 7IO       0.113000
     43 H13         28.5280    -7.3550   -14.2280 ha         1 7IO       0.115500
     44 H14         29.2730    -8.6610   -16.2010 h1         1 7IO       0.042200
     45 H15         30.4650    -8.7640   -14.8950 h1         1 7IO       0.042200
     46 H16         31.2700    -9.8280   -17.0350 h1         1 7IO       0.062450
     47 H17         31.2640   -10.9400   -15.6580 h1         1 7IO       0.062450
     48 H18         28.1620   -12.7060   -16.7810 h1         1 7IO       0.062450
     49 H19         29.3880   -12.6780   -15.5050 h1         1 7IO       0.062450
     50 H20         27.2260   -10.5570   -16.0360 h1         1 7IO       0.042200
     51 H21         27.3380   -11.6490   -14.6520 h1         1 7IO       0.042200
     52 H22         29.2070   -10.7950   -17.7840 hn         1 7IO       0.403000
     53 H6          27.7810   -11.2190   -12.4580 ha         1 7IO       0.115500
@<TRIPOS>BOND
     1     1     2 ar  
     2     1     9 ar  
     3     1    32 1   
     4     2     3 ar  
     5     2     6 ar  
     6     3    18 ar  
     7     3    28 ar  
     8     4     5 ar  
     9     4    28 ar  
    10     4    33 1   
    11     5     6 ar  
    12     5    34 1   
    13     6     7 1   
    14     7     8 2   
    15     7    19 1   
    16     8    31 1   
    17     8    35 1   
    18     9    17 ar  
    19     9    36 1   
    20    10    11 ar  
    21    10    22 ar  
    22    10    27 1   
    23    11    12 ar  
    24    11    53 1   
    25    12    13 ar  
    26    12    37 1   
    27    13    14 1   
    28    13    21 ar  
    29    14    15 ar  
    30    14    20 ar  
    31    15    16 ar  
    32    15    38 1   
    33    16    19 ar  
    34    16    31 1   
    35    17    18 ar  
    36    17    39 1   
    37    18    40 1   
    38    19    29 ar  
    39    20    29 ar  
    40    20    41 1   
    41    21    22 ar  
    42    21    42 1   
    43    22    43 1   
    44    23    24 1   
    45    23    27 1   
    46    23    44 1   
    47    23    45 1   
    48    24    30 1   
    49    24    46 1   
    50    24    47 1   
    51    25    26 1   
    52    25    30 1   
    53    25    48 1   
    54    25    49 1   
    55    26    27 1   
    56    26    50 1   
    57    26    51 1   
    58    30    52 1   
@<TRIPOS>SUBSTRUCTURE
     1 7IO         1 TEMP              0 ****  ****    0 ROOT
