@<TRIPOS>MOLECULE
7IO
   53    58     1     0     0
SMALL
abcg2


@<TRIPOS>ATOM
      1 C18         24.7380    -2.9450    -7.6490 ca         1 7IO      -0.074000
      2 C17         25.0540    -3.2340    -6.3010 ca         1 7IO      -0.058000
      3 C16         25.3400    -2.1590    -5.4200 ca         1 7IO       0.266000
      4 C14         25.5870    -3.5600    -3.6390 ca         1 7IO       0.350900
      5 C13         25.3370    -4.7000    -4.4280 ca         1 7IO      -0.164000
      6 C12         25.0780    -4.5520    -5.7660 ca         1 7IO       0.040200
      7 C11         24.8440    -5.7280    -6.6070 cc         1 7IO      -0.208000
      8 C10         23.9270    -6.7020    -6.4040 cd         1 7IO      -0.042900
      9 C19         24.7380    -1.6550    -8.1040 ca         1 7IO      -0.112000
     10 C02         28.2210    -9.3640   -13.4410 ca         1 7IO       0.314000
     11 C03         27.7050   -10.1110   -12.3690 ca         1 7IO      -0.168500
     12 C04         27.1590    -9.4950   -11.2620 ca         1 7IO      -0.062000
     13 C05         27.0940    -8.1040   -11.1520 cp         1 7IO      -0.081000
     14 C06         26.5130    -7.4610    -9.9620 cp         1 7IO      -0.050000
     15 C07         25.4410    -8.0370    -9.2820 ca         1 7IO      -0.064000
     16 C08         24.9940    -7.3490    -8.1760 ca         1 7IO       0.008100
     17 C20         25.0530    -0.5910    -7.2350 ca         1 7IO      -0.101000
     18 C21         25.3420    -0.8370    -5.9210 ca         1 7IO      -0.087000
     19 C22         25.5710    -6.1440    -7.7800 ca         1 7IO       0.332800
     20 C24         27.0440    -6.2500    -9.4730 ca         1 7IO       0.328900
     21 C25         27.6010    -7.3610   -12.2150 ca         1 7IO      -0.062000
     22 C26         28.1450    -7.9690   -13.3350 ca         1 7IO      -0.168500
     23 C27         29.4580    -9.1860   -15.5360 c6         1 7IO       0.162300
     24 C28         30.3840   -10.0430   -16.3920 c6         1 7IO       0.141300
     25 C30         29.0760   -11.9780   -15.9490 c6         1 7IO       0.141300
     26 C31         28.1240   -11.1540   -15.0950 c6         1 7IO       0.162300
     27 N01         28.8080    -9.9990   -14.5250 nh         1 7IO      -0.790400
     28 N15         25.6030    -2.3410    -4.1030 nb         1 7IO      -0.658000
     29 N23         26.5970    -5.5930    -8.4180 nb         1 7IO      -0.610000
     30 N29         29.7480   -11.2070   -16.9790 n7         1 7IO      -0.838400
     31 O09         23.9910    -7.6810    -7.3390 os         1 7IO      -0.159200
     32 H1          24.4800    -3.7490    -8.3250 ha         1 7IO       0.121000
     33 H2          25.7920    -3.6850    -2.5810 h4         1 7IO       0.018100
     34 H3          25.3750    -5.6810    -3.9750 ha         1 7IO       0.122000
     35 H4          23.1620    -6.8130    -5.6510 h4         1 7IO       0.247000
     36 H5          24.4920    -1.4470    -9.1370 ha         1 7IO       0.113000
     37 H7          26.8070   -10.1200   -10.4500 ha         1 7IO       0.113000
     38 H8          24.9750    -8.9570    -9.6110 ha         1 7IO       0.138000
     39 H9          25.0560     0.4250    -7.6100 ha         1 7IO       0.115000
     40 H10         25.5720    -0.0300    -5.2370 ha         1 7IO       0.130000
     41 H11         27.8980    -5.8100    -9.9760 h4         1 7IO       0.026100
     42 H12         27.5440    -6.2790   -12.1990 ha         1 7IO       0.113000
     43 H13         28.4900    -7.3340   -14.1390 ha         1 7IO       0.115500
     44 H14         28.7220    -8.6780   -16.1800 h1         1 7IO       0.042200
     45 H15         30.0570    -8.4120   -15.0540 h1         1 7IO       0.042200
     46 H16         30.8080    -9.4240   -17.1840 h1         1 7IO       0.062450
     47 H17         31.2190   -10.3850   -15.7710 h1         1 7IO       0.062450
     48 H18         28.5230   -12.7980   -16.4110 h1         1 7IO       0.062450
     49 H19         29.8360   -12.4250   -15.3010 h1         1 7IO       0.062450
     50 H20         27.2710   -10.8240   -15.7090 h1         1 7IO       0.042200
     51 H21         27.7230   -11.7850   -14.3050 h1         1 7IO       0.042200
     52 H22         29.0650   -10.9040   -17.6640 hn         1 7IO       0.403000
     53 H6          27.7610   -11.1910   -12.3770 ha         1 7IO       0.115500
@<TRIPOS>BOND
     1     1     2 ar  
     2     1     9 ar  
     3     1    32 1   
     4     2     3 ar  
     5     2     6 ar  
     6     3    18 ar  
     7     3    28 ar  
     8     4     5 ar  
     9     4    28 ar  
    10     4    33 1   
    11     5     6 ar  
    12     5    34 1   
    13     6     7 1   
    14     7     8 2   
    15     7    19 1   
    16     8    31 1   
    17     8    35 1   
    18     9    17 ar  
    19     9    36 1   
    20    10    11 ar  
    21    10    22 ar  
    22    10    27 1   
    23    11    12 ar  
    24    11    53 1   
    25    12    13 ar  
    26    12    37 1   
    27    13    14 1   
    28    13    21 ar  
    29    14    15 ar  
    30    14    20 ar  
    31    15    16 ar  
    32    15    38 1   
    33    16    19 ar  
    34    16    31 1   
    35    17    18 ar  
    36    17    39 1   
    37    18    40 1   
    38    19    29 ar  
    39    20    29 ar  
    40    20    41 1   
    41    21    22 ar  
    42    21    42 1   
    43    22    43 1   
    44    23    24 1   
    45    23    27 1   
    46    23    44 1   
    47    23    45 1   
    48    24    30 1   
    49    24    46 1   
    50    24    47 1   
    51    25    26 1   
    52    25    30 1   
    53    25    48 1   
    54    25    49 1   
    55    26    27 1   
    56    26    50 1   
    57    26    51 1   
    58    30    52 1   
@<TRIPOS>SUBSTRUCTURE
     1 7IO         1 TEMP              0 ****  ****    0 ROOT
