@<TRIPOS>MOLECULE
7IP
   43    45     1     0     0
SMALL
No Charge or Current Charge


@<TRIPOS>ATOM
      1 C1           6.0670    -5.6990     1.4400 c3         1 7IP       0.145900
      2 O2           6.5370    -4.9800     0.2860 os         1 7IP      -0.344100
      3 C3           5.9110    -3.8410    -0.1770 ca         1 7IP       0.137100
      4 C4           6.4390    -3.2230    -1.3210 ca         1 7IP      -0.145000
      5 C5           5.8400    -2.0640    -1.8410 ca         1 7IP      -0.080000
      6 C6           4.7080    -1.5190    -1.2140 ca         1 7IP      -0.139000
      7 C7           4.1540    -2.1170    -0.0550 cp         1 7IP       0.004000
      8 C8           4.7740    -3.2880     0.4510 ca         1 7IP      -0.184000
      9 C9           2.9490    -1.5340     0.6160 cp         1 7IP      -0.036000
     10 C10          1.9000    -0.9490    -0.1360 ca         1 7IP      -0.097000
     11 C11          0.7630    -0.4210     0.4980 ca         1 7IP      -0.112000
     12 C12          0.6520    -0.4660     1.8970 ca         1 7IP      -0.102000
     13 C13          1.6810    -1.0350     2.6690 ca         1 7IP      -0.076300
     14 C14          1.5610    -1.0970     4.1870 c3         1 7IP      -0.024100
     15 C15          0.9020    -2.4070     4.6790 c3         1 7IP      -0.128700
     16 C16          1.6640    -3.6630     4.2720 ca         1 7IP       0.403300
     17 C17          2.9780    -3.8920     4.7280 ca         1 7IP      -0.218000
     18 C18          3.6560    -5.0530     4.3280 ca         1 7IP      -0.035000
     19 C19          2.9760    -5.9420     3.4830 ca         1 7IP      -0.242000
     20 C20          1.6750    -5.6190     3.0940 ca         1 7IP       0.591900
     21 N21          0.9290    -6.3990     2.3080 nv         1 7IP      -1.052900
     22 N22          1.0140    -4.5320     3.4640 nb         1 7IP      -0.737000
     23 C23          2.8190    -1.5580     2.0260 ca         1 7IP      -0.083000
     24 H11A         5.0430    -6.0600     1.2830 h1         1 7IP       0.041033
     25 H12A         6.0840    -5.0600     2.3320 h1         1 7IP       0.041033
     26 H13          6.7080    -6.5690     1.6330 h1         1 7IP       0.041033
     27 H4           7.3150    -3.6450    -1.8070 ha         1 7IP       0.124000
     28 H5           6.2540    -1.5880    -2.7280 ha         1 7IP       0.113000
     29 H6           4.2650    -0.6140    -1.6220 ha         1 7IP       0.116000
     30 H8           4.3460    -3.7640     1.3270 ha         1 7IP       0.129000
     31 H10          1.9590    -0.9210    -1.2210 ha         1 7IP       0.114000
     32 H11         -0.0350     0.0180    -0.0960 ha         1 7IP       0.111000
     33 H12         -0.2350    -0.0620     2.3800 ha         1 7IP       0.108000
     34 H141         2.5500    -0.9900     4.6490 hc         1 7IP       0.047700
     35 H142         0.9700    -0.2470     4.5510 hc         1 7IP       0.047700
     36 H151        -0.1280    -2.4430     4.3040 hc         1 7IP       0.058700
     37 H152         0.8250    -2.3730     5.7720 hc         1 7IP       0.058700
     38 H17          3.4620    -3.1740     5.3850 ha         1 7IP       0.123000
     39 H18          4.6710    -5.2590     4.6650 ha         1 7IP       0.115000
     40 H19          3.4470    -6.8590     3.1440 ha         1 7IP       0.117000
     41 H211        -0.0570    -6.1700     2.2960 hn         1 7IP       0.468500
     42 H212         1.1700    -7.3820     2.2540 hn         1 7IP       0.468500
     43 H23          3.6170    -1.9850     2.6280 ha         1 7IP       0.114000
@<TRIPOS>BOND
     1     1     2 1   
     2     1    24 1   
     3     1    25 1   
     4     1    26 1   
     5     2     3 1   
     6     3     4 ar  
     7     3     8 ar  
     8     4     5 ar  
     9     4    27 1   
    10     5     6 ar  
    11     5    28 1   
    12     6     7 ar  
    13     6    29 1   
    14     7     8 ar  
    15     7     9 1   
    16     8    30 1   
    17     9    10 ar  
    18     9    23 ar  
    19    10    11 ar  
    20    10    31 1   
    21    11    12 ar  
    22    11    32 1   
    23    12    13 ar  
    24    12    33 1   
    25    13    14 1   
    26    13    23 ar  
    27    14    15 1   
    28    14    34 1   
    29    14    35 1   
    30    15    16 1   
    31    15    36 1   
    32    15    37 1   
    33    16    17 ar  
    34    16    22 ar  
    35    17    18 ar  
    36    17    38 1   
    37    18    19 ar  
    38    18    39 1   
    39    19    20 ar  
    40    19    40 1   
    41    20    21 1   
    42    20    22 ar  
    43    21    41 1   
    44    21    42 1   
    45    23    43 1   
@<TRIPOS>SUBSTRUCTURE
     1 7IP         1 TEMP              0 ****  ****    0 ROOT
