@<TRIPOS>MOLECULE
7IP
   43    45     1     0     0
SMALL
abcg2


@<TRIPOS>ATOM
      1 C1           5.5920    -5.8700     1.1820 c3         1 7IP       0.145900
      2 O2           6.1850    -5.1650     0.1100 os         1 7IP      -0.344100
      3 C3           5.6610    -3.9760    -0.2430 ca         1 7IP       0.137100
      4 C4           6.2810    -3.3240    -1.3110 ca         1 7IP      -0.145000
      5 C5           5.7930    -2.1050    -1.7460 ca         1 7IP      -0.080000
      6 C6           4.6910    -1.5190    -1.1330 ca         1 7IP      -0.139000
      7 C7           4.0710    -2.1600    -0.0650 cp         1 7IP       0.004000
      8 C8           4.5610    -3.3920     0.3780 ca         1 7IP      -0.184000
      9 C9           2.8970    -1.5580     0.5990 cp         1 7IP      -0.036000
     10 C10          1.8820    -0.9650    -0.1520 ca         1 7IP      -0.097000
     11 C11          0.7740    -0.4200     0.4780 ca         1 7IP      -0.112000
     12 C12          0.6690    -0.4560     1.8620 ca         1 7IP      -0.102000
     13 C13          1.6740    -1.0320     2.6340 ca         1 7IP      -0.076300
     14 C14          1.5530    -1.0800     4.1310 c3         1 7IP      -0.024100
     15 C15          0.9110    -2.3810     4.6430 c3         1 7IP      -0.128700
     16 C16          1.7540    -3.5950     4.3740 ca         1 7IP       0.403300
     17 C17          2.8450    -3.8790     5.1850 ca         1 7IP      -0.218000
     18 C18          3.6000    -5.0100     4.8970 ca         1 7IP      -0.035000
     19 C19          3.2620    -5.8030     3.8210 ca         1 7IP      -0.242000
     20 C20          2.1550    -5.4260     3.0450 ca         1 7IP       0.591900
     21 N21          1.8100    -6.1320     1.9270 nv         1 7IP      -1.052900
     22 N22          1.4200    -4.3530     3.3320 nb         1 7IP      -0.737000
     23 C23          2.7780    -1.5780     1.9880 ca         1 7IP      -0.083000
     24 H11A         4.5440    -6.1100     0.9810 h1         1 7IP       0.041033
     25 H12A         5.6490    -5.3100     2.1190 h1         1 7IP       0.041033
     26 H13          6.1500    -6.7960     1.2930 h1         1 7IP       0.041033
     27 H4           7.1370    -3.7800    -1.7930 ha         1 7IP       0.124000
     28 H5           6.2800    -1.6010    -2.5700 ha         1 7IP       0.113000
     29 H6           4.3330    -0.5560    -1.4740 ha         1 7IP       0.116000
     30 H8           4.0480    -3.8920     1.1900 ha         1 7IP       0.129000
     31 H10          1.9490    -0.9480    -1.2330 ha         1 7IP       0.114000
     32 H11         -0.0130     0.0320    -0.1110 ha         1 7IP       0.111000
     33 H12         -0.2000    -0.0270     2.3470 ha         1 7IP       0.108000
     34 H141         2.5370    -0.9580     4.5900 hc         1 7IP       0.047700
     35 H142         0.9450    -0.2420     4.4760 hc         1 7IP       0.047700
     36 H151        -0.0700    -2.5090     4.1810 hc         1 7IP       0.058700
     37 H152         0.7530    -2.2800     5.7190 hc         1 7IP       0.058700
     38 H17          3.0880    -3.2430     6.0270 ha         1 7IP       0.123000
     39 H18          4.4480    -5.2750     5.5160 ha         1 7IP       0.115000
     40 H19          3.8260    -6.6950     3.5820 ha         1 7IP       0.117000
     41 H211         0.8790    -5.9730     1.5760 hn         1 7IP       0.468500
     42 H212         2.1050    -7.0930     1.8770 hn         1 7IP       0.468500
     43 H23          3.5750    -2.0110     2.5830 ha         1 7IP       0.114000
@<TRIPOS>BOND
     1     1     2 1   
     2     1    24 1   
     3     1    25 1   
     4     1    26 1   
     5     2     3 1   
     6     3     4 ar  
     7     3     8 ar  
     8     4     5 ar  
     9     4    27 1   
    10     5     6 ar  
    11     5    28 1   
    12     6     7 ar  
    13     6    29 1   
    14     7     8 ar  
    15     7     9 1   
    16     8    30 1   
    17     9    10 ar  
    18     9    23 ar  
    19    10    11 ar  
    20    10    31 1   
    21    11    12 ar  
    22    11    32 1   
    23    12    13 ar  
    24    12    33 1   
    25    13    14 1   
    26    13    23 ar  
    27    14    15 1   
    28    14    34 1   
    29    14    35 1   
    30    15    16 1   
    31    15    36 1   
    32    15    37 1   
    33    16    17 ar  
    34    16    22 ar  
    35    17    18 ar  
    36    17    38 1   
    37    18    19 ar  
    38    18    39 1   
    39    19    20 ar  
    40    19    40 1   
    41    20    21 1   
    42    20    22 ar  
    43    21    41 1   
    44    21    42 1   
    45    23    43 1   
@<TRIPOS>SUBSTRUCTURE
     1 7IP         1 TEMP              0 ****  ****    0 ROOT
