@<TRIPOS>MOLECULE
7IQ
   40    43     1     0     0
SMALL
No Charge or Current Charge


@<TRIPOS>ATOM
      1 C4          16.6580   -33.5990    25.4440 c6         1 7IQ       0.151600
      2 C14         15.6240   -34.5380    18.2860 c5         1 7IQ       0.094300
      3 C6          15.7320   -35.7560    24.9430 c6         1 7IQ       0.145600
      4 C11         16.6010   -32.8180    19.7420 cc         1 7IQ      -0.202600
      5 C7          16.2290   -35.6930    23.4690 c6         1 7IQ       0.168800
      6 C9          16.4360   -33.9420    21.6480 cd         1 7IQ       0.477900
      7 C10         16.8450   -32.7130    21.0820 cd         1 7IQ      -0.189000
      8 C16         16.0620   -35.9720    17.8770 c5         1 7IQ      -0.085400
      9 C17         17.5860   -35.7990    17.6030 c5         1 7IQ      -0.076400
     10 C18         17.7220   -34.3590    17.0070 c5         1 7IQ      -0.104400
     11 C19         16.2810   -33.7540    17.0940 c5         1 7IQ       0.093700
     12 C2          17.2180   -33.4190    23.9950 c6         1 7IQ       0.181500
     13 C22         16.7960   -31.8390    18.6690 c          1 7IQ       0.599600
     14 N12         16.0720   -34.0670    19.5890 na         1 7IQ       0.147800
     15 N13         15.9470   -34.7870    20.7620 nc         1 7IQ      -0.568800
     16 N21         16.4750   -32.2980    17.3950 ns         1 7IQ      -0.500900
     17 N8          16.5020   -34.2880    23.0030 nh         1 7IQ      -0.737300
     18 O23         17.1850   -30.6970    18.8480 o          1 7IQ      -0.537000
     19 O5          16.5990   -34.9960    25.8140 os         1 7IQ      -0.445000
     20 H1          17.2920   -33.0620    26.1630 h1         1 7IQ       0.053200
     21 H2          15.6470   -33.1700    25.5050 h1         1 7IQ       0.053200
     22 H3          14.5310   -34.4430    18.2500 h1         1 7IQ       0.082700
     23 H4          14.7120   -35.3520    25.0080 h1         1 7IQ       0.051700
     24 H5          15.7060   -36.8010    25.2820 h1         1 7IQ       0.051700
     25 H6          15.4670   -36.1780    22.8410 h1         1 7IQ       0.053700
     26 H7          17.1440   -36.2960    23.3780 h1         1 7IQ       0.053700
     27 H8          17.2640   -31.8570    21.5970 ha         1 7IQ       0.159000
     28 H12         15.5340   -36.3050    16.9750 hc         1 7IQ       0.066200
     29 H13         15.8590   -36.7160    18.6550 hc         1 7IQ       0.066200
     30 H14         17.9680   -36.5680    16.9220 hc         1 7IQ       0.055200
     31 H15         18.1610   -35.8880    18.5330 hc         1 7IQ       0.055200
     32 H16         18.0770   -34.3780    15.9700 hc         1 7IQ       0.056200
     33 H17         18.4650   -33.7880    17.5780 hc         1 7IQ       0.056200
     34 H18         15.7240   -33.9190    16.1610 h1         1 7IQ       0.069700
     35 H19         17.0690   -32.3600    23.7390 h1         1 7IQ       0.065700
     36 H20         16.5570   -31.6040    16.6610 hn         1 7IQ       0.324500
     37 C1          18.7440   -33.6970    23.9280 c3         1 7IQ      -0.118100
     38 H9          19.2930   -33.0380    24.6110 hc         1 7IQ       0.044033
     39 H10         18.9780   -34.7320    24.2040 hc         1 7IQ       0.044033
     40 H11         19.1350   -33.5230    22.9190 hc         1 7IQ       0.044033
@<TRIPOS>BOND
     1     1    12 1   
     2     1    19 1   
     3     1    20 1   
     4     1    21 1   
     5     2     8 1   
     6     2    11 1   
     7     2    14 1   
     8     2    22 1   
     9     3     5 1   
    10     3    19 1   
    11     3    23 1   
    12     3    24 1   
    13     4     7 2   
    14     4    13 1   
    15     4    14 1   
    16     5    17 1   
    17     5    25 1   
    18     5    26 1   
    19     6     7 1   
    20     6    15 2   
    21     6    17 1   
    22     7    27 1   
    23     8     9 1   
    24     8    28 1   
    25     8    29 1   
    26     9    10 1   
    27     9    30 1   
    28     9    31 1   
    29    10    11 1   
    30    10    32 1   
    31    10    33 1   
    32    11    16 1   
    33    11    34 1   
    34    12    17 1   
    35    12    35 1   
    36    12    37 1   
    37    13    16 1   
    38    13    18 2   
    39    14    15 1   
    40    16    36 1   
    41    37    38 1   
    42    37    39 1   
    43    37    40 1   
@<TRIPOS>SUBSTRUCTURE
     1 7IQ         1 TEMP              0 ****  ****    0 ROOT
