@<TRIPOS>MOLECULE
7IQ
   40    43     1     0     0
SMALL
abcg2


@<TRIPOS>ATOM
      1 C4          16.8300   -33.7340    25.3430 c6         1 7IQ       0.151600
      2 C14         15.6800   -34.5550    18.3210 c5         1 7IQ       0.094300
      3 C6          15.7460   -35.7010    24.8000 c6         1 7IQ       0.145600
      4 C11         16.4610   -32.7180    19.7790 cc         1 7IQ      -0.202600
      5 C7          16.0690   -35.5450    23.3260 c6         1 7IQ       0.168800
      6 C9          16.3220   -33.7930    21.6900 cd         1 7IQ       0.477900
      7 C10         16.6420   -32.5360    21.1320 cd         1 7IQ      -0.189000
      8 C16         16.2060   -35.9680    18.1340 c5         1 7IQ      -0.085400
      9 C17         17.7050   -35.7870    17.8720 c5         1 7IQ      -0.076400
     10 C18         17.8370   -34.4110    17.1910 c5         1 7IQ      -0.104400
     11 C19         16.4270   -33.7770    17.2350 c5         1 7IQ       0.093700
     12 C2          17.2530   -33.4760    23.9020 c6         1 7IQ       0.181500
     13 C22         16.5710   -31.7750    18.6540 c          1 7IQ       0.599600
     14 N12         16.0790   -33.9920    19.5950 na         1 7IQ       0.147800
     15 N13         15.9830   -34.6600    20.7410 nc         1 7IQ      -0.568800
     16 N21         16.4050   -32.3450    17.4460 ns         1 7IQ      -0.500900
     17 N8          16.2970   -34.1440    23.0210 nh         1 7IQ      -0.737300
     18 O23         16.7590   -30.5810    18.8340 o          1 7IQ      -0.537000
     19 O5          16.7280   -35.1110    25.6200 os         1 7IQ      -0.445000
     20 H1          17.5700   -33.3140    26.0260 h1         1 7IQ       0.053200
     21 H2          15.8700   -33.2320    25.5340 h1         1 7IQ       0.053200
     22 H3          14.5940   -34.4860    18.2170 h1         1 7IQ       0.082700
     23 H4          14.7610   -35.2580    25.0040 h1         1 7IQ       0.051700
     24 H5          15.6960   -36.7610    25.0550 h1         1 7IQ       0.051700
     25 H6          15.2190   -35.9060    22.7470 h1         1 7IQ       0.053700
     26 H7          16.9290   -36.1720    23.0530 h1         1 7IQ       0.053700
     27 H8          16.9580   -31.6340    21.6280 ha         1 7IQ       0.159000
     28 H12         15.7070   -36.3920    17.2600 hc         1 7IQ       0.066200
     29 H13         15.9840   -36.6180    18.9790 hc         1 7IQ       0.066200
     30 H14         18.1050   -36.5960    17.2620 hc         1 7IQ       0.055200
     31 H15         18.2560   -35.7980    18.8130 hc         1 7IQ       0.055200
     32 H16         18.1820   -34.4910    16.1600 hc         1 7IQ       0.056200
     33 H17         18.5550   -33.7780    17.7140 hc         1 7IQ       0.056200
     34 H18         15.9110   -33.9680    16.2940 h1         1 7IQ       0.069700
     35 H19         17.1590   -32.3980    23.7470 h1         1 7IQ       0.065700
     36 H20         16.5150   -31.7490    16.6390 hn         1 7IQ       0.324500
     37 C1          18.7010   -33.8880    23.6430 c3         1 7IQ      -0.118100
     38 H9          19.3770   -33.3120    24.2760 hc         1 7IQ       0.044033
     39 H10         18.8650   -34.9440    23.8570 hc         1 7IQ       0.044033
     40 H11         18.9840   -33.7050    22.6060 hc         1 7IQ       0.044033
@<TRIPOS>BOND
     1     1    12 1   
     2     1    19 1   
     3     1    20 1   
     4     1    21 1   
     5     2     8 1   
     6     2    11 1   
     7     2    14 1   
     8     2    22 1   
     9     3     5 1   
    10     3    19 1   
    11     3    23 1   
    12     3    24 1   
    13     4     7 2   
    14     4    13 1   
    15     4    14 1   
    16     5    17 1   
    17     5    25 1   
    18     5    26 1   
    19     6     7 1   
    20     6    15 2   
    21     6    17 1   
    22     7    27 1   
    23     8     9 1   
    24     8    28 1   
    25     8    29 1   
    26     9    10 1   
    27     9    30 1   
    28     9    31 1   
    29    10    11 1   
    30    10    32 1   
    31    10    33 1   
    32    11    16 1   
    33    11    34 1   
    34    12    17 1   
    35    12    35 1   
    36    12    37 1   
    37    13    16 1   
    38    13    18 2   
    39    14    15 1   
    40    16    36 1   
    41    37    38 1   
    42    37    39 1   
    43    37    40 1   
@<TRIPOS>SUBSTRUCTURE
     1 7IQ         1 TEMP              0 ****  ****    0 ROOT
