@<TRIPOS>MOLECULE
7IU
   78    84     1     0     0
SMALL
No Charge or Current Charge


@<TRIPOS>ATOM
      1 C1           9.1880    21.1800    -0.5480 ca         1 7IU      -0.128000
      2 C10          9.6560    23.0070    -2.0480 ca         1 7IU      -0.111800
      3 C11         15.1840    21.1040    -5.4340 ca         1 7IU      -0.201600
      4 C12         19.9540    24.1030    -7.4890 ca         1 7IU      -0.123800
      5 C13         16.1880    21.2840    -7.6090 ca         1 7IU      -0.155300
      6 C14         18.8660    22.3760    -8.7470 ca         1 7IU      -0.187300
      7 C15         10.2370    23.8050    -3.1120 cc         1 7IU      -0.151400
      8 C16          8.7380    23.7840    -1.3840 ca         1 7IU       0.056100
      9 C17         17.0710    20.2780    -7.2470 ca         1 7IU       0.357300
     10 C18         19.6930    22.7030    -9.7920 ca         1 7IU       0.468900
     11 C19         20.1360    24.9650    -6.2810 ce         1 7IU      -0.163200
     12 C2           8.2410    21.9880     0.1300 ca         1 7IU      -0.093000
     13 C20         19.2620    25.0930    -5.2540 c2         1 7IU      -0.187200
     14 C21         14.2310    21.5060    -4.3540 c          1 7IU       0.622700
     15 C22         13.2290    24.8060    -3.1560 c          1 7IU       0.609100
     16 C23         18.3040    21.0830   -10.7290 c          1 7IU       0.580000
     17 C24         16.4280    21.8090    -9.0050 c5         1 7IU      -0.004100
     18 C25         18.0830    20.0000    -8.3250 c5         1 7IU      -0.108700
     19 C26         19.4500    26.0270    -4.0800 c3         1 7IU       0.191800
     20 C27         13.4990    26.6820    -1.4760 c3         1 7IU       0.103000
     21 C28         14.8540    26.7610    -0.7300 c3         1 7IU       0.143600
     22 C29         18.3400    26.8050    -2.0900 c3         1 7IU       0.163600
     23 C3           9.9110    21.6870    -1.6520 ca         1 7IU      -0.068000
     24 C30         17.2300    26.4580    -1.0690 c3         1 7IU       0.160600
     25 C31         12.7290    23.3660    -3.5120 c3         1 7IU       0.045700
     26 C32         17.9000    21.2890    -9.2210 c5         1 7IU      -0.091700
     27 C34         11.2950    23.3830    -4.0940 c3         1 7IU      -0.013200
     28 C4           8.0060    23.3170    -0.2880 ca         1 7IU      -0.102000
     29 C5          15.2220    21.7330    -6.7000 ca         1 7IU      -0.031000
     30 C6          18.9750    23.0810    -7.5400 ca         1 7IU      -0.009000
     31 C7          16.0930    20.0590    -5.1700 ca         1 7IU       0.387900
     32 C8          20.7650    24.3310    -8.6400 ca         1 7IU       0.374900
     33 C9           9.5940    25.0340    -3.0000 cd         1 7IU      -0.044900
     34 N35         17.0380    19.6540    -6.0540 nb         1 7IU      -0.656000
     35 N36         20.6410    23.6440    -9.8060 nb         1 7IU      -0.692000
     36 N37         19.3580    21.9520   -10.8930 ns         1 7IU      -0.318900
     37 N38         13.6550    22.7490    -4.4880 ns         1 7IU      -0.492900
     38 N39         13.0820    25.2980    -1.8310 n          1 7IU      -0.391800
     39 O40         13.9790    20.7780    -3.4050 o          1 7IU      -0.596100
     40 O41         13.7170    25.5160    -4.0310 o          1 7IU      -0.593100
     41 O42         17.8330    20.3480   -11.5850 o          1 7IU      -0.510000
     42 O43          8.6960    25.0130    -1.9590 os         1 7IU      -0.168200
     43 O44         18.3780    25.8240    -3.1470 os         1 7IU      -0.431000
     44 O45         15.9320    26.6300    -1.6750 os         1 7IU      -0.421000
     45 H1           9.3620    20.1590    -0.2150 ha         1 7IU       0.116000
     46 H2          21.0510    25.5620    -6.2800 ha         1 7IU       0.174000
     47 H3           7.6940    21.5840     0.9790 ha         1 7IU       0.117000
     48 H4          18.3240    24.5400    -5.2280 ha         1 7IU       0.189000
     49 H5          16.3380    22.8990    -9.0880 hc         1 7IU       0.073200
     50 H6          15.7280    21.3620    -9.7210 hc         1 7IU       0.073200
     51 H7          17.8260    19.0840    -8.8680 hc         1 7IU       0.084700
     52 H8          19.1020    19.8860    -7.9400 hc         1 7IU       0.084700
     53 H9          20.4190    25.8340    -3.6010 h1         1 7IU       0.027200
     54 H10         19.4510    27.0630    -4.4460 h1         1 7IU       0.027200
     55 H11         13.5370    27.3190    -2.3680 h1         1 7IU       0.062200
     56 H12         12.7270    27.1070    -0.8220 h1         1 7IU       0.062200
     57 H13         14.9020    25.9750     0.0350 h1         1 7IU       0.019700
     58 H14         14.9230    27.7310    -0.2220 h1         1 7IU       0.019700
     59 H15         19.3020    26.8260    -1.5610 h1         1 7IU       0.025700
     60 H16         18.1590    27.8080    -2.4970 h1         1 7IU       0.025700
     61 H17         10.6420    21.0730    -2.1740 ha         1 7IU       0.119000
     62 H18         17.3590    25.4290    -0.7080 h1         1 7IU       0.027700
     63 H19         17.3410    27.1330    -0.2100 h1         1 7IU       0.027700
     64 H20         12.7260    22.7550    -2.6030 h1         1 7IU       0.072700
     65 H21         12.7370    24.9680     0.2450 h1         1 7IU       0.042700
     66 H22         11.6910    24.0330    -0.8400 h1         1 7IU       0.042700
     67 H23         13.4090    23.5740    -0.6370 h1         1 7IU       0.042700
     68 H24         11.2690    24.0390    -4.9730 hc         1 7IU       0.061700
     69 H25         11.0530    22.3770    -4.4590 hc         1 7IU       0.061700
     70 H26          7.2870    23.9540     0.2210 ha         1 7IU       0.132000
     71 H27         14.5350    22.5290    -6.9790 ha         1 7IU       0.126000
     72 H28         18.3250    22.8600    -6.6990 ha         1 7IU       0.136000
     73 H29         16.0960    19.5460    -4.2090 h4         1 7IU       0.043100
     74 H30         21.5250    25.1110    -8.6300 h4         1 7IU       0.024100
     75 H31          9.6920    25.9520    -3.5720 h4         1 7IU       0.247000
     76 H32         19.8370    22.0650   -11.7750 hn         1 7IU       0.186000
     77 H33         13.9630    23.3130    -5.2710 hn         1 7IU       0.322500
     78 C33         12.7060    24.4150    -0.7030 c3         1 7IU       0.087300
@<TRIPOS>BOND
     1     1    12 ar  
     2     1    23 ar  
     3     1    45 1   
     4     2     7 1   
     5     2     8 ar  
     6     2    23 ar  
     7     3    14 1   
     8     3    29 ar  
     9     3    31 ar  
    10     4    11 1   
    11     4    30 ar  
    12     4    32 ar  
    13     5     9 ar  
    14     5    17 1   
    15     5    29 ar  
    16     6    10 ar  
    17     6    26 1   
    18     6    30 ar  
    19     7    27 1   
    20     7    33 2   
    21     8    28 ar  
    22     8    42 1   
    23     9    18 1   
    24     9    34 ar  
    25    10    35 ar  
    26    10    36 1   
    27    11    13 2   
    28    11    46 1   
    29    12    28 ar  
    30    12    47 1   
    31    13    19 1   
    32    13    48 1   
    33    14    37 1   
    34    14    39 2   
    35    15    25 1   
    36    15    38 1   
    37    15    40 2   
    38    16    26 1   
    39    16    36 1   
    40    16    41 2   
    41    17    26 1   
    42    17    49 1   
    43    17    50 1   
    44    18    26 1   
    45    18    51 1   
    46    18    52 1   
    47    19    43 1   
    48    19    53 1   
    49    19    54 1   
    50    20    21 1   
    51    20    38 1   
    52    20    55 1   
    53    20    56 1   
    54    21    44 1   
    55    21    57 1   
    56    21    58 1   
    57    22    24 1   
    58    22    43 1   
    59    22    59 1   
    60    22    60 1   
    61    23    61 1   
    62    24    44 1   
    63    24    62 1   
    64    24    63 1   
    65    25    27 1   
    66    25    37 1   
    67    25    64 1   
    68    27    68 1   
    69    27    69 1   
    70    28    70 1   
    71    29    71 1   
    72    30    72 1   
    73    31    34 ar  
    74    31    73 1   
    75    32    35 ar  
    76    32    74 1   
    77    33    42 1   
    78    33    75 1   
    79    36    76 1   
    80    37    77 1   
    81    38    78 1   
    82    65    78 1   
    83    66    78 1   
    84    67    78 1   
@<TRIPOS>SUBSTRUCTURE
     1 7IU         1 TEMP              0 ****  ****    0 ROOT
