@<TRIPOS>MOLECULE
7IU
   78    84     1     0     0
SMALL
abcg2


@<TRIPOS>ATOM
      1 C1           8.7340    21.8420    -0.5340 ca         1 7IU      -0.128000
      2 C10          9.5980    23.3400    -2.1760 ca         1 7IU      -0.111800
      3 C11         15.5350    21.3710    -5.2750 ca         1 7IU      -0.201600
      4 C12         19.5900    24.4790    -7.6440 ca         1 7IU      -0.123800
      5 C13         16.3120    21.2240    -7.5140 ca         1 7IU      -0.155300
      6 C14         18.7810    22.5280    -8.7480 ca         1 7IU      -0.187300
      7 C15         10.2970    23.9560    -3.2760 cc         1 7IU      -0.151400
      8 C16          8.8450    24.3590    -1.5910 ca         1 7IU       0.056100
      9 C17         17.3410    20.4140    -7.0370 ca         1 7IU       0.357300
     10 C18         19.5230    22.9420    -9.8560 ca         1 7IU       0.468900
     11 C19         19.6510    25.3840    -6.4940 ce         1 7IU      -0.163200
     12 C2           7.9940    22.8860     0.0360 ca         1 7IU      -0.093000
     13 C20         19.3100    25.0620    -5.2460 c2         1 7IU      -0.187200
     14 C21         14.6950    21.9410    -4.1820 c          1 7IU       0.622700
     15 C22         13.2280    24.3200    -3.0660 c          1 7IU       0.609100
     16 C23         18.4930    21.0290   -10.5470 c          1 7IU       0.580000
     17 C24         16.5070    21.4920    -8.9760 c5         1 7IU      -0.004100
     18 C25         18.3160    20.1120    -8.1400 c5         1 7IU      -0.108700
     19 C26         19.3750    26.0030    -4.0900 c3         1 7IU       0.191800
     20 C27         13.5330    25.9320    -1.2790 c3         1 7IU       0.103000
     21 C28         14.9150    26.1200    -0.6850 c3         1 7IU       0.143600
     22 C29         18.1920    26.6660    -2.1830 c3         1 7IU       0.163600
     23 C3           9.5400    22.0540    -1.6400 ca         1 7IU      -0.068000
     24 C30         17.1970    26.1940    -1.1540 c3         1 7IU       0.160600
     25 C31         12.6080    22.9970    -3.5380 c3         1 7IU       0.045700
     26 C32         18.0350    21.2780    -9.1090 c5         1 7IU      -0.091700
     27 C34         11.2640    23.3150    -4.2090 c3         1 7IU      -0.013200
     28 C4           8.0330    24.1690    -0.4860 ca         1 7IU      -0.102000
     29 C5          15.3900    21.7200    -6.6200 ca         1 7IU      -0.031000
     30 C6          18.8140    23.3070    -7.6250 ca         1 7IU      -0.009000
     31 C7          16.5770    20.5180    -4.9190 ca         1 7IU       0.387900
     32 C8          20.2740    24.7780    -8.8170 ca         1 7IU       0.374900
     33 C9           9.9110    25.2490    -3.2610 cd         1 7IU      -0.044900
     34 N35         17.4700    20.0370    -5.7800 nb         1 7IU      -0.656000
     35 N36         20.2570    24.0230    -9.9230 nb         1 7IU      -0.692000
     36 N37         19.3450    22.0400   -10.8900 ns         1 7IU      -0.318900
     37 N38         13.4670    22.3660    -4.5130 ns         1 7IU      -0.492900
     38 N39         13.2500    24.5840    -1.7460 n          1 7IU      -0.391800
     39 O40         15.1210    22.0250    -3.0370 o          1 7IU      -0.596100
     40 O41         13.6000    25.1180    -3.9130 o          1 7IU      -0.593100
     41 O42         18.1580    20.1100   -11.2570 o          1 7IU      -0.510000
     42 O43          9.0350    25.5180    -2.2590 os         1 7IU      -0.168200
     43 O44         18.2550    25.7720    -3.2650 os         1 7IU      -0.431000
     44 O45         15.8960    26.1520    -1.6890 os         1 7IU      -0.421000
     45 H1           8.6730    20.8530    -0.0990 ha         1 7IU       0.116000
     46 H2          19.9990    26.3920    -6.7040 ha         1 7IU       0.174000
     47 H3           7.3760    22.6870     0.9010 ha         1 7IU       0.117000
     48 H4          18.9960    24.0500    -5.0030 ha         1 7IU       0.189000
     49 H5          16.1920    22.4870    -9.2900 hc         1 7IU       0.073200
     50 H6          15.9650    20.7590    -9.5810 hc         1 7IU       0.073200
     51 H7          18.0780    19.1530    -8.6130 hc         1 7IU       0.084700
     52 H8          19.3510    20.0740    -7.8020 hc         1 7IU       0.084700
     53 H9          20.3000    25.8350    -3.5170 h1         1 7IU       0.027200
     54 H10         19.4100    27.0420    -4.4440 h1         1 7IU       0.027200
     55 H11         13.3750    26.6410    -2.0900 h1         1 7IU       0.062200
     56 H12         12.8030    26.1740    -0.5020 h1         1 7IU       0.062200
     57 H13         15.1200    25.3220     0.0430 h1         1 7IU       0.019700
     58 H14         14.9150    27.0620    -0.1190 h1         1 7IU       0.019700
     59 H15         19.1660    26.7430    -1.6790 h1         1 7IU       0.025700
     60 H16         17.9310    27.6770    -2.5260 h1         1 7IU       0.025700
     61 H17         10.1110    21.2420    -2.0720 ha         1 7IU       0.119000
     62 H18         17.4900    25.2090    -0.7650 h1         1 7IU       0.027700
     63 H19         17.2530    26.8970    -0.3110 h1         1 7IU       0.027700
     64 H20         12.4290    22.2990    -2.7190 h1         1 7IU       0.072700
     65 H21         13.3680    23.9380     0.2230 h1         1 7IU       0.042700
     66 H22         11.8440    23.5290    -0.5560 h1         1 7IU       0.042700
     67 H23         13.3320    22.6370    -0.9400 h1         1 7IU       0.042700
     68 H24         11.4390    23.9660    -5.0670 hc         1 7IU       0.061700
     69 H25         10.8450    22.3810    -4.5930 hc         1 7IU       0.061700
     70 H26          7.4610    24.9780    -0.0510 ha         1 7IU       0.132000
     71 H27         14.6210    22.4080    -6.9550 ha         1 7IU       0.126000
     72 H28         18.2370    23.0490    -6.7460 ha         1 7IU       0.136000
     73 H29         16.7040    20.2260    -3.8840 h4         1 7IU       0.043100
     74 H30         20.8720    25.6820    -8.8720 h4         1 7IU       0.024100
     75 H31         10.1750    26.0790    -3.8990 h4         1 7IU       0.247000
     76 H32         19.7800    22.1250   -11.7970 hn         1 7IU       0.186000
     77 H33         13.1040    22.2170    -5.4410 hn         1 7IU       0.322500
     78 C33         12.9200    23.6160    -0.7150 c3         1 7IU       0.087300
@<TRIPOS>BOND
     1     1    12 ar  
     2     1    23 ar  
     3     1    45 1   
     4     2     7 1   
     5     2     8 ar  
     6     2    23 ar  
     7     3    14 1   
     8     3    29 ar  
     9     3    31 ar  
    10     4    11 1   
    11     4    30 ar  
    12     4    32 ar  
    13     5     9 ar  
    14     5    17 1   
    15     5    29 ar  
    16     6    10 ar  
    17     6    26 1   
    18     6    30 ar  
    19     7    27 1   
    20     7    33 2   
    21     8    28 ar  
    22     8    42 1   
    23     9    18 1   
    24     9    34 ar  
    25    10    35 ar  
    26    10    36 1   
    27    11    13 2   
    28    11    46 1   
    29    12    28 ar  
    30    12    47 1   
    31    13    19 1   
    32    13    48 1   
    33    14    37 1   
    34    14    39 2   
    35    15    25 1   
    36    15    38 1   
    37    15    40 2   
    38    16    26 1   
    39    16    36 1   
    40    16    41 2   
    41    17    26 1   
    42    17    49 1   
    43    17    50 1   
    44    18    26 1   
    45    18    51 1   
    46    18    52 1   
    47    19    43 1   
    48    19    53 1   
    49    19    54 1   
    50    20    21 1   
    51    20    38 1   
    52    20    55 1   
    53    20    56 1   
    54    21    44 1   
    55    21    57 1   
    56    21    58 1   
    57    22    24 1   
    58    22    43 1   
    59    22    59 1   
    60    22    60 1   
    61    23    61 1   
    62    24    44 1   
    63    24    62 1   
    64    24    63 1   
    65    25    27 1   
    66    25    37 1   
    67    25    64 1   
    68    27    68 1   
    69    27    69 1   
    70    28    70 1   
    71    29    71 1   
    72    30    72 1   
    73    31    34 ar  
    74    31    73 1   
    75    32    35 ar  
    76    32    74 1   
    77    33    42 1   
    78    33    75 1   
    79    36    76 1   
    80    37    77 1   
    81    38    78 1   
    82    65    78 1   
    83    66    78 1   
    84    67    78 1   
@<TRIPOS>SUBSTRUCTURE
     1 7IU         1 TEMP              0 ****  ****    0 ROOT
