@<TRIPOS>MOLECULE
7IV
   33    34     1     0     0
SMALL
abcg2


@<TRIPOS>ATOM
      1 C4          -7.3440    14.6930    22.7490 ca         1 7IV      -0.015000
      2 C14         -8.7940    12.0910    27.8150 ca         1 7IV      -0.137300
      3 C5          -7.3820    15.2110    20.3940 ca         1 7IV      -0.076000
      4 C6          -8.0560    14.9980    21.5880 ca         1 7IV      -0.145000
      5 C11         -9.5060    14.2180    25.8110 c3         1 7IV       0.063600
      6 C9          -9.2290    14.5460    24.3560 c          1 7IV       0.611100
      7 C13         -8.4760    13.5650    27.8320 c3         1 7IV       0.210900
      8 C3          -6.0020    15.1210    20.3460 ca         1 7IV       0.090000
      9 C1          -5.2790    14.8200    21.4900 ca         1 7IV      -0.076000
     10 C15         -8.1650    11.2370    26.9120 ca         1 7IV      -0.095500
     11 C16         -9.6980    11.5590    28.7290 ca         1 7IV      -0.095500
     12 C17         -8.4320     9.8750    26.9290 ca         1 7IV      -0.109500
     13 C18         -9.9590    10.1940    28.7550 ca         1 7IV      -0.109500
     14 C19         -9.3280     9.3500    27.8530 ca         1 7IV      -0.101000
     15 C2          -5.9520    14.6070    22.6800 ca         1 7IV      -0.145000
     16 N8          -7.9290    14.4610    23.9950 ns         1 7IV      -0.135000
     17 O10        -10.1500    14.8330    23.6140 o          1 7IV      -0.583100
     18 O12         -8.3180    14.1180    26.5450 os         1 7IV      -0.471000
     19 CL7         -5.1720    15.3840    18.8470 cl         1 7IV      -0.205000
     20 H1          -7.9470    15.4480    19.5030 ha         1 7IV       0.129000
     21 H2          -9.1310    15.0760    21.5970 ha         1 7IV       0.133500
     22 H3         -10.1640    14.9990    26.2150 h1         1 7IV       0.065700
     23 H4         -10.0790    13.2810    25.8200 h1         1 7IV       0.065700
     24 H5          -7.5260    13.7330    28.3450 h1         1 7IV       0.058200
     25 H6          -9.2450    14.1060    28.3980 h1         1 7IV       0.058200
     26 H7          -4.2010    14.7490    21.4620 ha         1 7IV       0.129000
     27 H8          -7.4660    11.6350    26.1870 ha         1 7IV       0.114000
     28 H9         -10.2040    12.2170    29.4260 ha         1 7IV       0.114000
     29 H10         -7.9380     9.2230    26.2210 ha         1 7IV       0.116000
     30 H11        -10.6640     9.7940    29.4720 ha         1 7IV       0.116000
     31 H12         -9.5340     8.2870    27.8660 ha         1 7IV       0.116000
     32 H13         -5.3800    14.3730    23.5700 ha         1 7IV       0.133500
     33 H14         -7.2910    14.2150    24.7400 hn         1 7IV       0.174000
@<TRIPOS>BOND
     1     1     4 ar  
     2     1    15 ar  
     3     1    16 1   
     4     2     7 1   
     5     2    10 ar  
     6     2    11 ar  
     7     3     4 ar  
     8     3     8 ar  
     9     3    20 1   
    10     4    21 1   
    11     5     6 1   
    12     5    18 1   
    13     5    22 1   
    14     5    23 1   
    15     6    16 1   
    16     6    17 2   
    17     7    18 1   
    18     7    24 1   
    19     7    25 1   
    20     8     9 ar  
    21     8    19 1   
    22     9    15 ar  
    23     9    26 1   
    24    10    12 ar  
    25    10    27 1   
    26    11    13 ar  
    27    11    28 1   
    28    12    14 ar  
    29    12    29 1   
    30    13    14 ar  
    31    13    30 1   
    32    14    31 1   
    33    15    32 1   
    34    16    33 1   
@<TRIPOS>SUBSTRUCTURE
     1 7IV         1 TEMP              0 ****  ****    0 ROOT
