@<TRIPOS>MOLECULE
7IV
   33    34     1     0     0
SMALL
No Charge or Current Charge


@<TRIPOS>ATOM
      1 C4          -7.4000    14.7010    22.6490 ca         1 7IV      -0.015000
      2 C14         -8.6990    12.0870    27.9370 ca         1 7IV      -0.137300
      3 C5          -7.4390    15.4940    20.3340 ca         1 7IV      -0.076000
      4 C6          -8.1060    15.2350    21.5460 ca         1 7IV      -0.145000
      5 C11         -9.4890    14.0830    25.8420 c3         1 7IV       0.063600
      6 C9          -9.2930    14.5850    24.3930 c          1 7IV       0.611100
      7 C13         -8.3510    13.5730    27.9480 c3         1 7IV       0.210900
      8 C3          -6.0680    15.2230    20.2120 ca         1 7IV       0.090000
      9 C1          -5.3590    14.6920    21.3000 ca         1 7IV      -0.076000
     10 C15         -7.7770    11.1490    27.4320 ca         1 7IV      -0.095500
     11 C16         -9.9430    11.6400    28.4250 ca         1 7IV      -0.095500
     12 C17         -8.0950     9.7790    27.4150 ca         1 7IV      -0.109500
     13 C18        -10.2610    10.2710    28.4080 ca         1 7IV      -0.109500
     14 C19         -9.3370     9.3400    27.9030 ca         1 7IV      -0.101000
     15 C2          -6.0240    14.4330    22.5120 ca         1 7IV      -0.145000
     16 N8          -8.0040    14.4110    23.9040 ns         1 7IV      -0.135000
     17 O10        -10.2150    15.0810    23.7520 o          1 7IV      -0.583100
     18 O12         -8.2440    14.0530    26.5920 os         1 7IV      -0.471000
     19 Cl7         -5.2380    15.5490    18.6950 cl         1 7IV      -0.205000
     20 H1          -7.9870    15.9040    19.4890 ha         1 7IV       0.129000
     21 H2          -9.1670    15.4530    21.6030 ha         1 7IV       0.133500
     22 H3         -10.2200    14.7420    26.3270 h1         1 7IV       0.065700
     23 H4          -9.9230    13.0780    25.7710 h1         1 7IV       0.065700
     24 H5          -7.3950    13.7080    28.4710 h1         1 7IV       0.058200
     25 H6          -9.1100    14.1400    28.5040 h1         1 7IV       0.058200
     26 H7          -4.2960    14.4820    21.2050 ha         1 7IV       0.129000
     27 H8          -6.8140    11.4820    27.0500 ha         1 7IV       0.114000
     28 H9         -10.6670    12.3530    28.8170 ha         1 7IV       0.114000
     29 H10         -7.3790     9.0600    27.0230 ha         1 7IV       0.116000
     30 H11        -11.2230     9.9310    28.7850 ha         1 7IV       0.116000
     31 H12         -9.5830     8.2800    27.8900 ha         1 7IV       0.116000
     32 H13         -5.4630    14.0210    23.3480 ha         1 7IV       0.133500
     33 H14         -7.3730    14.0030    24.5820 hn         1 7IV       0.174000
@<TRIPOS>BOND
     1     1     4 ar  
     2     1    15 ar  
     3     1    16 1   
     4     2     7 1   
     5     2    10 ar  
     6     2    11 ar  
     7     3     4 ar  
     8     3     8 ar  
     9     3    20 1   
    10     4    21 1   
    11     5     6 1   
    12     5    18 1   
    13     5    22 1   
    14     5    23 1   
    15     6    16 1   
    16     6    17 2   
    17     7    18 1   
    18     7    24 1   
    19     7    25 1   
    20     8     9 ar  
    21     8    19 1   
    22     9    15 ar  
    23     9    26 1   
    24    10    12 ar  
    25    10    27 1   
    26    11    13 ar  
    27    11    28 1   
    28    12    14 ar  
    29    12    29 1   
    30    13    14 ar  
    31    13    30 1   
    32    14    31 1   
    33    15    32 1   
    34    16    33 1   
@<TRIPOS>SUBSTRUCTURE
     1 7IV         1 TEMP              0 ****  ****    0 ROOT
