@<TRIPOS>MOLECULE
7IX
   69    73     1     0     0
SMALL
abcg2


@<TRIPOS>ATOM
      1 F3          39.0010     2.2360   -82.5310 f          1 7IX      -0.113000
      2 C21         39.5440     1.0000   -82.4690 c3         1 7IX       0.286000
      3 F1          40.7200     1.0580   -83.1360 f          1 7IX      -0.113000
      4 F2          38.7370     0.1810   -83.1760 f          1 7IX      -0.113000
      5 C20         39.7140     0.5500   -81.0320 c3         1 7IX      -0.066200
      6 C18         40.2820    -0.8260   -80.8980 cc         1 7IX      -0.110600
      7 S1          41.9890    -1.1290   -81.1080 ss         1 7IX      -0.079900
      8 C17         41.7660    -2.8200   -80.7800 ca         1 7IX       0.169300
      9 N4          42.7950    -3.6740   -80.7230 nb         1 7IX      -0.186000
     10 C16         42.4360    -4.9060   -80.3870 ca         1 7IX       0.175900
     11 N3          41.2070    -5.3560   -80.1570 nb         1 7IX      -0.292000
     12 C19         39.5910    -1.9580   -80.6040 cd         1 7IX      -0.113200
     13 C15         40.4140    -3.1350   -80.5470 ca         1 7IX      -0.233800
     14 C14         40.1580    -4.5130   -80.2550 ca         1 7IX       0.428900
     15 N2          38.9280    -5.0450   -80.0600 nh         1 7IX      -0.772300
     16 C13         37.7110    -4.3470   -80.4560 c3         1 7IX       0.208100
     17 C12         38.8150    -6.4000   -79.5180 c5         1 7IX       0.202500
     18 C10         38.8150    -7.5390   -80.5780 c5         1 7IX       0.155300
     19 O1          38.1660    -7.1680   -81.7990 oh         1 7IX      -0.667000
     20 C9          38.0160    -8.6720   -79.9210 c5         1 7IX      -0.078400
     21 C11         37.6000    -6.6760   -78.6340 c5         1 7IX      -0.125400
     22 C8          37.6810    -8.2080   -78.4940 c5         1 7IX       0.167500
     23 N1          36.5210    -8.9070   -77.9630 n7         1 7IX      -0.854400
     24 C7          36.1530    -8.5100   -76.6000 c3         1 7IX       0.207100
     25 C6          35.1140    -9.4420   -76.0340 ca         1 7IX      -0.075300
     26 C3          33.7740    -9.0720   -75.9640 ca         1 7IX      -0.101500
     27 C2          32.8150    -9.9480   -75.4660 ca         1 7IX      -0.084500
     28 C5          35.4730   -10.7170   -75.5900 ca         1 7IX      -0.101500
     29 C4          34.5240   -11.5930   -75.0900 ca         1 7IX      -0.084500
     30 C1          33.1750   -11.2220   -75.0210 cp         1 7IX      -0.141500
     31 C23         32.1650   -12.1660   -74.4880 cp         1 7IX       0.356500
     32 C25         30.9650   -11.7000   -73.9120 ca         1 7IX      -0.208000
     33 C26         30.0660   -12.6220   -73.4390 ca         1 7IX       0.126100
     34 O3          28.8860   -12.3650   -72.8650 os         1 7IX      -0.313100
     35 C27         28.4920   -10.9910   -72.7290 c3         1 7IX       0.142900
     36 N6          32.4450   -13.4590   -74.5760 nb         1 7IX      -0.310000
     37 N5          31.5740   -14.3630   -74.1040 nb         1 7IX      -0.394000
     38 C22         30.4400   -13.9900   -73.5640 ca         1 7IX       0.514300
     39 O2          29.5730   -14.8980   -73.0960 os         1 7IX      -0.449300
     40 C24         29.9310   -16.2860   -73.2130 c3         1 7IX       0.156900
     41 H1          40.3400     1.2970   -80.5400 hc         1 7IX       0.087200
     42 H2          38.7260     0.5820   -80.5720 hc         1 7IX       0.087200
     43 H3          43.2340    -5.6360   -80.2960 h5         1 7IX       0.050100
     44 H4          38.5310    -1.9290   -80.4180 ha         1 7IX       0.202000
     45 H5          36.9500    -5.0810   -80.6940 h1         1 7IX       0.050033
     46 H6          37.3330    -3.6940   -79.6650 h1         1 7IX       0.050033
     47 H7          37.8920    -3.7600   -81.3530 h1         1 7IX       0.050033
     48 H8          39.7020    -6.5580   -78.9080 h1         1 7IX       0.087700
     49 H9          39.8440    -7.8290   -80.8000 h1         1 7IX       0.059700
     50 H10         38.7150    -6.5100   -82.2430 ho         1 7IX       0.447000
     51 H11         37.0850    -8.7920   -80.4810 hc         1 7IX       0.068700
     52 H12         38.5390    -9.6270   -79.9350 hc         1 7IX       0.068700
     53 H13         37.6480    -6.1460   -77.6830 hc         1 7IX       0.054200
     54 H14         36.6590    -6.4180   -79.1260 hc         1 7IX       0.054200
     55 H15         38.5200    -8.4410   -77.8300 h1         1 7IX       0.063700
     56 H16         35.7250    -8.7640   -78.5790 hn         1 7IX       0.414000
     57 H18         37.0610    -8.5630   -75.9920 h1         1 7IX       0.037200
     58 H19         35.7860    -7.4770   -76.5440 h1         1 7IX       0.037200
     59 H20         33.4730    -8.0890   -76.3060 ha         1 7IX       0.115500
     60 H21         31.7790    -9.6360   -75.4440 ha         1 7IX       0.122500
     61 H22         36.5130   -11.0190   -75.6310 ha         1 7IX       0.115500
     62 H23         34.8220   -12.5690   -74.7350 ha         1 7IX       0.122500
     63 H24         30.7730   -10.6420   -73.8320 ha         1 7IX       0.134000
     64 H25         27.5160   -11.0120   -72.2550 h1         1 7IX       0.049367
     65 H26         29.2020   -10.4500   -72.1010 h1         1 7IX       0.049367
     66 H27         28.4240   -10.5150   -73.7090 h1         1 7IX       0.049367
     67 H28         29.0950   -16.8310   -72.7840 h1         1 7IX       0.052033
     68 H29         30.0690   -16.5590   -74.2580 h1         1 7IX       0.052033
     69 H30         30.8470   -16.4930   -72.6590 h1         1 7IX       0.052033
@<TRIPOS>BOND
     1     1     2 1   
     2     2     3 1   
     3     2     4 1   
     4     2     5 1   
     5     5     6 1   
     6     5    41 1   
     7     5    42 1   
     8     6     7 1   
     9     6    12 2   
    10     7     8 1   
    11     8     9 ar  
    12     8    13 ar  
    13     9    10 ar  
    14    10    11 ar  
    15    10    43 1   
    16    11    14 ar  
    17    12    13 1   
    18    12    44 1   
    19    13    14 ar  
    20    14    15 1   
    21    15    16 1   
    22    15    17 1   
    23    16    45 1   
    24    16    46 1   
    25    16    47 1   
    26    17    18 1   
    27    17    21 1   
    28    17    48 1   
    29    18    19 1   
    30    18    20 1   
    31    18    49 1   
    32    19    50 1   
    33    20    22 1   
    34    20    51 1   
    35    20    52 1   
    36    21    22 1   
    37    21    53 1   
    38    21    54 1   
    39    22    23 1   
    40    22    55 1   
    41    23    24 1   
    42    23    56 1   
    43    24    25 1   
    44    24    57 1   
    45    24    58 1   
    46    25    26 ar  
    47    25    28 ar  
    48    26    27 ar  
    49    26    59 1   
    50    27    30 ar  
    51    27    60 1   
    52    28    29 ar  
    53    28    61 1   
    54    29    30 ar  
    55    29    62 1   
    56    30    31 1   
    57    31    32 ar  
    58    31    36 ar  
    59    32    33 ar  
    60    32    63 1   
    61    33    34 1   
    62    33    38 ar  
    63    34    35 1   
    64    35    64 1   
    65    35    65 1   
    66    35    66 1   
    67    36    37 ar  
    68    37    38 ar  
    69    38    39 1   
    70    39    40 1   
    71    40    67 1   
    72    40    68 1   
    73    40    69 1   
@<TRIPOS>SUBSTRUCTURE
     1 7IX         1 TEMP              0 ****  ****    0 ROOT
