@<TRIPOS>MOLECULE
7IX
   69    73     1     0     0
SMALL
No Charge or Current Charge


@<TRIPOS>ATOM
      1 F3          35.9340     1.1060   -80.5780 f          1 7IX      -0.113000
      2 C21         36.8580     0.2240   -81.0200 c3         1 7IX       0.286000
      3 F1          37.5510     0.8160   -82.0200 f          1 7IX      -0.113000
      4 F2          36.2020    -0.8400   -81.5370 f          1 7IX      -0.113000
      5 C20         37.7940    -0.2060   -79.8700 c3         1 7IX      -0.066200
      6 C18         38.8490    -1.2020   -80.2800 cc         1 7IX      -0.110600
      7 S1          40.4430    -0.6650   -80.8870 ss         1 7IX      -0.079900
      8 C17         40.9410    -2.3720   -81.0420 ca         1 7IX       0.169300
      9 N4          42.1610    -2.7580   -81.4560 nb         1 7IX      -0.186000
     10 C16         42.3600    -4.0950   -81.4920 ca         1 7IX       0.175900
     11 N3          41.4650    -5.0570   -81.1650 nb         1 7IX      -0.292000
     12 C19         38.7700    -2.5790   -80.2320 cd         1 7IX      -0.113200
     13 C15         39.9610    -3.2710   -80.6820 ca         1 7IX      -0.233800
     14 C14         40.2440    -4.6470   -80.7640 ca         1 7IX       0.428900
     15 N2          39.3140    -5.6610   -80.4470 nh         1 7IX      -0.772300
     16 C13         37.9630    -5.5990   -81.0730 c3         1 7IX       0.208100
     17 C12         39.7300    -6.7810   -79.5090 c5         1 7IX       0.202500
     18 C10         39.9910    -8.1100   -80.3350 c5         1 7IX       0.155300
     19 O1          39.9640    -7.8860   -81.7430 oh         1 7IX      -0.667000
     20 C9          38.8560    -9.0600   -79.8620 c5         1 7IX      -0.078400
     21 C11         38.5610    -7.1220   -78.5240 c5         1 7IX      -0.125400
     22 C8          38.7500    -8.6520   -78.3720 c5         1 7IX       0.167500
     23 N1          37.5160    -9.2500   -77.8130 n7         1 7IX      -0.854400
     24 C7          37.2800    -9.0360   -76.3730 c3         1 7IX       0.207100
     25 C6          35.9800    -9.7010   -75.9430 ca         1 7IX      -0.075300
     26 C3          34.7830    -8.9640   -75.8980 ca         1 7IX      -0.101500
     27 C2          33.5830    -9.5770   -75.4980 ca         1 7IX      -0.084500
     28 C5          35.9600   -11.0610   -75.5880 ca         1 7IX      -0.101500
     29 C4          34.7600   -11.6760   -75.1890 ca         1 7IX      -0.084500
     30 C1          33.5400   -10.9480   -75.1280 cp         1 7IX      -0.141500
     31 C23         32.2560   -11.6090   -74.6980 cp         1 7IX       0.356500
     32 C25         31.1490   -10.8860   -74.1840 ca         1 7IX      -0.208000
     33 C26         29.9830   -11.5960   -73.8050 ca         1 7IX       0.126100
     34 O3          28.8630   -10.9540   -73.2940 os         1 7IX      -0.313100
     35 C27         28.8030    -9.5270   -73.1190 c3         1 7IX       0.142900
     36 N6          32.1810   -12.9610   -74.8070 nb         1 7IX      -0.310000
     37 N5          31.0770   -13.6520   -74.4490 nb         1 7IX      -0.394000
     38 C22         29.9830   -13.0100   -73.9570 ca         1 7IX       0.514300
     39 O2          28.8570   -13.7320   -73.5940 os         1 7IX      -0.449300
     40 C24         28.8150   -15.1660   -73.7310 c3         1 7IX       0.156900
     41 H1          38.2740     0.6890   -79.4560 hc         1 7IX       0.087200
     42 H2          37.1850    -0.6260   -79.0610 hc         1 7IX       0.087200
     43 H3          43.3420    -4.4330   -81.8190 h5         1 7IX       0.050100
     44 H4          37.8880    -3.0890   -79.8560 ha         1 7IX       0.202000
     45 H5          37.6180    -6.5980   -81.3660 h1         1 7IX       0.050033
     46 H6          37.2290    -5.1720   -80.3790 h1         1 7IX       0.050033
     47 H7          37.9840    -4.9770   -81.9780 h1         1 7IX       0.050033
     48 H8          40.6340    -6.5170   -78.9390 h1         1 7IX       0.087700
     49 H9          40.9650    -8.5270   -80.0420 h1         1 7IX       0.059700
     50 H10         39.7890    -6.9130   -81.7770 ho         1 7IX       0.447000
     51 H11         37.9220    -8.8860   -80.4090 hc         1 7IX       0.068700
     52 H12         39.1210   -10.1150   -79.9890 hc         1 7IX       0.068700
     53 H13         38.6690    -6.5890   -77.5730 hc         1 7IX       0.054200
     54 H14         37.5620    -6.8910   -78.9060 hc         1 7IX       0.054200
     55 H15         39.6510    -8.9220   -77.8000 h1         1 7IX       0.063700
     56 H16         36.7010    -8.8920   -78.3230 hn         1 7IX       0.414000
     57 H18         38.1090    -9.4520   -75.7840 h1         1 7IX       0.037200
     58 H19         37.2240    -7.9630   -76.1440 h1         1 7IX       0.037200
     59 H20         34.7810    -7.9130   -76.1780 ha         1 7IX       0.115500
     60 H21         32.6780    -8.9750   -75.4950 ha         1 7IX       0.122500
     61 H22         36.8770   -11.6450   -75.6230 ha         1 7IX       0.115500
     62 H23         34.7850   -12.7290   -74.9160 ha         1 7IX       0.122500
     63 H24         31.2130    -9.8110   -74.0720 ha         1 7IX       0.134000
     64 H25         27.8300    -9.2350   -72.7070 h1         1 7IX       0.049367
     65 H26         29.5820    -9.1850   -72.4250 h1         1 7IX       0.049367
     66 H27         28.9340    -9.0100   -74.0790 h1         1 7IX       0.049367
     67 H28         27.8450   -15.5530   -73.3940 h1         1 7IX       0.052033
     68 H29         28.9530   -15.4640   -74.7780 h1         1 7IX       0.052033
     69 H30         29.5980   -15.6410   -73.1260 h1         1 7IX       0.052033
@<TRIPOS>BOND
     1     1     2 1   
     2     2     3 1   
     3     2     4 1   
     4     2     5 1   
     5     5     6 1   
     6     5    41 1   
     7     5    42 1   
     8     6     7 1   
     9     6    12 2   
    10     7     8 1   
    11     8     9 ar  
    12     8    13 ar  
    13     9    10 ar  
    14    10    11 ar  
    15    10    43 1   
    16    11    14 ar  
    17    12    13 1   
    18    12    44 1   
    19    13    14 ar  
    20    14    15 1   
    21    15    16 1   
    22    15    17 1   
    23    16    45 1   
    24    16    46 1   
    25    16    47 1   
    26    17    18 1   
    27    17    21 1   
    28    17    48 1   
    29    18    19 1   
    30    18    20 1   
    31    18    49 1   
    32    19    50 1   
    33    20    22 1   
    34    20    51 1   
    35    20    52 1   
    36    21    22 1   
    37    21    53 1   
    38    21    54 1   
    39    22    23 1   
    40    22    55 1   
    41    23    24 1   
    42    23    56 1   
    43    24    25 1   
    44    24    57 1   
    45    24    58 1   
    46    25    26 ar  
    47    25    28 ar  
    48    26    27 ar  
    49    26    59 1   
    50    27    30 ar  
    51    27    60 1   
    52    28    29 ar  
    53    28    61 1   
    54    29    30 ar  
    55    29    62 1   
    56    30    31 1   
    57    31    32 ar  
    58    31    36 ar  
    59    32    33 ar  
    60    32    63 1   
    61    33    34 1   
    62    33    38 ar  
    63    34    35 1   
    64    35    64 1   
    65    35    65 1   
    66    35    66 1   
    67    36    37 ar  
    68    37    38 ar  
    69    38    39 1   
    70    39    40 1   
    71    40    67 1   
    72    40    68 1   
    73    40    69 1   
@<TRIPOS>SUBSTRUCTURE
     1 7IX         1 TEMP              0 ****  ****    0 ROOT
