@<TRIPOS>MOLECULE
7IY
   25    25     1     0     0
SMALL
bcc


@<TRIPOS>ATOM
      1 C14         -8.9520   -13.3870    28.6720 c3         1 7IY       0.127700
      2 C5         -11.0600   -11.6910    24.0430 ca         1 7IY       0.120600
      3 C6         -12.6500   -10.4300    22.1500 ca         1 7IY      -0.070600
      4 C8         -11.6320   -11.2770    21.7570 ca         1 7IY      -0.055000
      5 C10        -10.8260   -11.9190    22.6850 ca         1 7IY      -0.192000
      6 C12         -8.7390   -13.5840    26.3500 c3         1 7IY       0.041400
      7 C3          -9.2910   -13.1460    25.0050 c          1 7IY       0.679100
      8 C1         -12.9050   -10.1850    23.5060 ca         1 7IY       0.199600
      9 C2         -12.0820   -10.8300    24.4320 ca         1 7IY      -0.260000
     10 N4         -10.3210   -12.2760    25.0750 ns         1 7IY      -0.459100
     11 N9         -13.9430    -9.3930    23.9220 nv         1 7IY      -0.824200
     12 O13         -9.3900   -12.9470    27.4080 os         1 7IY      -0.426600
     13 O7          -8.8020   -13.5890    23.9820 o          1 7IY      -0.582100
     14 CL1        -13.6380    -9.6580    20.9470 cl         1 7IY      -0.123400
     15 H1          -9.5170   -12.8440    29.4270 h1         1 7IY       0.036367
     16 H2          -9.1260   -14.4600    28.8080 h1         1 7IY       0.036367
     17 H3          -7.8850   -13.1910    28.8220 h1         1 7IY       0.036367
     18 H4         -11.4580   -11.4440    20.7020 ha         1 7IY       0.146000
     19 H5         -10.0430   -12.5730    22.3440 ha         1 7IY       0.170000
     20 H6          -8.8460   -14.6760    26.4050 h1         1 7IY       0.058700
     21 H7          -7.6600   -13.3730    26.3480 h1         1 7IY       0.058700
     22 H8         -12.2590   -10.6530    25.4880 ha         1 7IY       0.131000
     23 H9         -10.6010   -12.0190    26.0120 hn         1 7IY       0.340500
     24 H10        -13.8860    -9.0570    24.8690 hn         1 7IY       0.405800
     25 H11        -14.2640    -8.6850    23.2810 hn         1 7IY       0.405800
@<TRIPOS>BOND
     1     1    12 1   
     2     1    15 1   
     3     1    16 1   
     4     1    17 1   
     5     2     5 ar  
     6     2     9 ar  
     7     2    10 1   
     8     3     4 ar  
     9     3     8 ar  
    10     3    14 1   
    11     4     5 ar  
    12     4    18 1   
    13     5    19 1   
    14     6     7 1   
    15     6    12 1   
    16     6    20 1   
    17     6    21 1   
    18     7    10 1   
    19     7    13 2   
    20     8     9 ar  
    21     8    11 1   
    22     9    22 1   
    23    10    23 1   
    24    11    24 1   
    25    11    25 1   
@<TRIPOS>SUBSTRUCTURE
     1 7IY         1 TEMP              0 ****  ****    0 ROOT
