@<TRIPOS>MOLECULE
7IY
   25    25     1     0     0
SMALL
No Charge or Current Charge


@<TRIPOS>ATOM
      1 C14         -8.8710   -13.3090    28.7750 c3         1 7IY       0.150900
      2 C5         -11.0790   -11.7040    24.0060 ca         1 7IY       0.028000
      3 C6         -12.6660   -10.3480    22.0990 ca         1 7IY       0.021000
      4 C8         -11.6210   -11.1870    21.6780 ca         1 7IY      -0.037000
      5 C10        -10.8310   -11.8620    22.6250 ca         1 7IY      -0.174000
      6 C12         -8.7510   -13.6870    26.3750 c3         1 7IY       0.064600
      7 C3          -9.2320   -13.2070    24.9830 c          1 7IY       0.612100
      8 C1         -12.9210   -10.1860    23.4790 ca         1 7IY       0.338000
      9 C2         -12.1290   -10.8620    24.4170 ca         1 7IY      -0.242000
     10 N4         -10.3260   -12.3530    25.0220 ns         1 7IY      -0.133000
     11 N9         -13.9320    -9.3750    23.9340 nv         1 7IY      -1.073000
     12 O13         -9.2940   -12.8940    27.4630 os         1 7IY      -0.473000
     13 O7          -8.6770   -13.5720    23.9500 o          1 7IY      -0.582100
     14 Cl1        -13.6370    -9.5110    20.8790 cl         1 7IY      -0.215000
     15 H1          -9.3210   -12.6650    29.5420 h1         1 7IY       0.036367
     16 H2          -9.1790   -14.3430    28.9750 h1         1 7IY       0.036367
     17 H3          -7.7800   -13.2450    28.8720 h1         1 7IY       0.036367
     18 H4         -11.4240   -11.3140    20.6160 ha         1 7IY       0.128000
     19 H5         -10.0350   -12.5040    22.2620 ha         1 7IY       0.152000
     20 H6          -9.0570   -14.7360    26.4770 h1         1 7IY       0.058700
     21 H7          -7.6540   -13.6460    26.3760 h1         1 7IY       0.058700
     22 H8         -12.3300   -10.7340    25.4770 ha         1 7IY       0.113000
     23 H9         -10.6430   -12.1520    25.9620 hn         1 7IY       0.174000
     24 H10        -13.9740    -9.1270    24.9200 hn         1 7IY       0.461000
     25 H11        -14.4120    -8.7650    23.2730 hn         1 7IY       0.461000
@<TRIPOS>BOND
     1     1    12 1   
     2     1    15 1   
     3     1    16 1   
     4     1    17 1   
     5     2     5 ar  
     6     2     9 ar  
     7     2    10 1   
     8     3     4 ar  
     9     3     8 ar  
    10     3    14 1   
    11     4     5 ar  
    12     4    18 1   
    13     5    19 1   
    14     6     7 1   
    15     6    12 1   
    16     6    20 1   
    17     6    21 1   
    18     7    10 1   
    19     7    13 2   
    20     8     9 ar  
    21     8    11 1   
    22     9    22 1   
    23    10    23 1   
    24    11    24 1   
    25    11    25 1   
@<TRIPOS>SUBSTRUCTURE
     1 7IY         1 TEMP              0 ****  ****    0 ROOT
