@<TRIPOS>MOLECULE
7IZ
   64    69     1     0     0
SMALL
No Charge or Current Charge


@<TRIPOS>ATOM
      1 C1         -16.8340    -3.4990   -26.5210 ca         1 7IZ      -0.104000
      2 C2         -15.7720    -3.3760   -25.6230 ca         1 7IZ      -0.092000
      3 C3         -16.0090    -3.3570   -24.2370 ca         1 7IZ      -0.036000
      4 C4         -17.3320    -3.4630   -23.7150 ca         1 7IZ       0.005000
      5 C5         -18.4210    -3.6150   -24.6460 cp         1 7IZ      -0.115500
      6 C6         -18.1390    -3.6200   -26.0350 ca         1 7IZ      -0.076000
      7 C12        -22.5240    -4.1090   -23.6660 ca         1 7IZ      -0.259000
      8 C13        -21.6880    -5.2330   -23.5030 ca         1 7IZ       0.080000
      9 C15        -23.5200    -6.4600   -22.8040 ca         1 7IZ       0.422300
     10 C17        -23.8850    -4.2540   -23.3490 ca         1 7IZ       0.460900
     11 C25        -25.6460    -9.3400   -21.6030 c5         1 7IZ       0.169500
     12 C27        -25.5160   -11.6540   -21.7740 c5         1 7IZ       0.160800
     13 C29        -24.8460    -9.7700   -20.3410 c5         1 7IZ      -0.074400
     14 C10        -17.4820    -3.3990   -22.2910 ca         1 7IZ       0.137000
     15 C18        -21.9850    -2.9080   -24.1620 ca         1 7IZ       0.382900
     16 C20        -19.8480    -3.8190   -24.2620 cp         1 7IZ       0.375500
     17 C21        -20.3230    -5.0800   -23.8150 ca         1 7IZ       0.141000
     18 C24        -25.3960    -7.8650   -22.0520 c3         1 7IZ       0.187600
     19 C28        -24.9370   -11.3280   -20.3680 c5         1 7IZ      -0.078400
     20 C32        -26.2160    -3.4520   -23.9060 c6         1 7IZ       0.204300
     21 C33        -27.0420    -2.1310   -24.0470 c6         1 7IZ       0.140800
     22 C35        -26.0080    -1.6040   -21.8320 c6         1 7IZ       0.140800
     23 C37        -24.6630    -2.0090   -22.5240 c6         1 7IZ       0.204300
     24 C7         -14.8970    -3.2260   -23.3840 ca         1 7IZ      -0.096000
     25 C8         -15.0680    -3.1860   -21.9970 ca         1 7IZ      -0.103000
     26 C9         -16.3560    -3.2670   -21.4590 ca         1 7IZ      -0.102000
     27 F23        -19.4720    -6.1280   -23.6810 f          1 7IZ      -0.140000
     28 N14        -22.2000    -6.4020   -23.0690 nb         1 7IZ      -0.216000
     29 N16        -24.3790    -5.4280   -22.9290 nb         1 7IZ      -0.376000
     30 N19        -20.6760    -2.7670   -24.4650 nb         1 7IZ      -0.662000
     31 N26        -25.2380   -10.4210   -22.5410 n3         1 7IZ      -0.702600
     32 N31        -24.8100    -3.1970   -23.4360 nh         1 7IZ      -0.774300
     33 N34        -27.1260    -1.3210   -22.7880 n7         1 7IZ      -0.858400
     34 Cl1        -19.0300    -3.4250   -21.4360 cl         1 7IZ      -0.202000
     35 H1         -16.6470    -3.5100   -27.5930 ha         1 7IZ       0.119000
     36 H2         -14.7580    -3.2900   -26.0080 ha         1 7IZ       0.115000
     37 H3         -18.9560    -3.7320   -26.7460 ha         1 7IZ       0.121000
     38 H4         -26.7230    -9.4210   -21.3950 h1         1 7IZ       0.027700
     39 H5         -26.5970   -11.8440   -21.7120 h1         1 7IZ       0.034200
     40 H6         -25.0430   -12.5400   -22.2200 h1         1 7IZ       0.034200
     41 H7         -23.8010    -9.4450   -20.3990 hc         1 7IZ       0.052200
     42 H8         -25.2650    -9.3420   -19.4230 hc         1 7IZ       0.052200
     43 H9         -25.5630    -9.4630   -24.4170 h1         1 7IZ       0.029700
     44 H10        -25.5120   -11.2360   -24.4880 h1         1 7IZ       0.029700
     45 H11        -26.9450   -10.4160   -23.8210 h1         1 7IZ       0.029700
     46 H12        -22.6030    -2.0320   -24.3430 h4         1 7IZ       0.018100
     47 H13        -26.0250    -7.6480   -22.9250 h1         1 7IZ       0.048200
     48 H14        -25.7030    -7.1940   -21.2390 h1         1 7IZ       0.048200
     49 H15        -25.5840   -11.7190   -19.5740 hc         1 7IZ       0.052200
     50 H16        -23.9480   -11.7800   -20.2290 hc         1 7IZ       0.052200
     51 H17        -26.7400    -4.1160   -23.2030 h1         1 7IZ       0.063700
     52 H18        -26.1990    -3.9590   -24.8830 h1         1 7IZ       0.063700
     53 H19        -28.0550    -2.3620   -24.4070 h1         1 7IZ       0.054700
     54 H20        -26.5590    -1.5210   -24.8260 h1         1 7IZ       0.054700
     55 H21        -26.3090    -2.4370   -21.1790 h1         1 7IZ       0.054700
     56 H22        -25.8450    -0.7330   -21.1790 h1         1 7IZ       0.054700
     57 H23        -23.9220    -2.2230   -21.7390 h1         1 7IZ       0.063700
     58 H24        -24.2860    -1.1460   -23.0910 h1         1 7IZ       0.063700
     59 H25        -13.8940    -3.1510   -23.7980 ha         1 7IZ       0.117000
     60 H26        -14.2060    -3.0830   -21.3420 ha         1 7IZ       0.119000
     61 H27        -16.4880    -3.2190   -20.3810 ha         1 7IZ       0.128000
     62 H29        -27.1040    -0.3270   -23.0520 hn         1 7IZ       0.415000
     63 O22        -23.9980    -7.6750   -22.3690 os         1 7IZ      -0.414300
     64 C30        -25.8490   -10.3800   -23.8870 c3         1 7IZ       0.153100
@<TRIPOS>BOND
     1     1     2 ar  
     2     1     6 ar  
     3     1    35 1   
     4     2     3 ar  
     5     2    36 1   
     6     3     4 ar  
     7     3    24 ar  
     8     4     5 ar  
     9     4    14 ar  
    10     5     6 ar  
    11     5    16 1   
    12     6    37 1   
    13     7     8 ar  
    14     7    10 ar  
    15     7    15 ar  
    16     8    17 ar  
    17     8    28 ar  
    18     9    28 ar  
    19     9    29 ar  
    20     9    63 1   
    21    10    29 ar  
    22    10    32 1   
    23    11    13 1   
    24    11    18 1   
    25    11    31 1   
    26    11    38 1   
    27    12    19 1   
    28    12    31 1   
    29    12    39 1   
    30    12    40 1   
    31    13    19 1   
    32    13    41 1   
    33    13    42 1   
    34    14    26 ar  
    35    14    34 1   
    36    15    30 ar  
    37    15    46 1   
    38    16    17 ar  
    39    16    30 ar  
    40    17    27 1   
    41    18    47 1   
    42    18    48 1   
    43    18    63 1   
    44    19    49 1   
    45    19    50 1   
    46    20    21 1   
    47    20    32 1   
    48    20    51 1   
    49    20    52 1   
    50    21    33 1   
    51    21    53 1   
    52    21    54 1   
    53    22    23 1   
    54    22    33 1   
    55    22    55 1   
    56    22    56 1   
    57    23    32 1   
    58    23    57 1   
    59    23    58 1   
    60    24    25 ar  
    61    24    59 1   
    62    25    26 ar  
    63    25    60 1   
    64    26    61 1   
    65    31    64 1   
    66    33    62 1   
    67    43    64 1   
    68    44    64 1   
    69    45    64 1   
@<TRIPOS>SUBSTRUCTURE
     1 7IZ         1 TEMP              0 ****  ****    0 ROOT
