@<TRIPOS>MOLECULE
7IZ
   64    69     1     0     0
SMALL
abcg2


@<TRIPOS>ATOM
      1 C1         -16.8460    -4.3540   -26.2360 ca         1 7IZ      -0.104000
      2 C2         -15.8280    -3.9460   -25.4250 ca         1 7IZ      -0.092000
      3 C3         -16.0850    -3.4970   -24.1100 ca         1 7IZ      -0.036000
      4 C4         -17.4240    -3.4630   -23.6130 ca         1 7IZ       0.005000
      5 C5         -18.4610    -3.9290   -24.4720 cp         1 7IZ      -0.115500
      6 C6         -18.1610    -4.3470   -25.7450 ca         1 7IZ      -0.076000
      7 C12        -22.5640    -4.1640   -23.4820 ca         1 7IZ      -0.259000
      8 C13        -21.7420    -5.2650   -23.1450 ca         1 7IZ       0.080000
      9 C15        -23.5040    -6.4630   -22.4750 ca         1 7IZ       0.422300
     10 C17        -23.9490    -4.3030   -23.0910 ca         1 7IZ       0.460900
     11 C25        -25.6720    -9.2870   -21.7550 c5         1 7IZ       0.169500
     12 C27        -25.2770   -11.4450   -22.4710 c5         1 7IZ       0.160800
     13 C29        -24.9710    -9.9920   -20.5790 c5         1 7IZ      -0.074400
     14 C10        -17.5880    -2.9520   -22.2950 ca         1 7IZ       0.137000
     15 C18        -21.9900    -3.1180   -24.2250 ca         1 7IZ       0.382900
     16 C20        -19.8960    -4.0220   -24.0950 cp         1 7IZ       0.375500
     17 C21        -20.3730    -5.1180   -23.4360 ca         1 7IZ       0.141000
     18 C24        -25.3700    -7.8120   -21.8970 c3         1 7IZ       0.187600
     19 C28        -24.5530   -11.3660   -21.1340 c5         1 7IZ      -0.078400
     20 C32        -26.2620    -3.6440   -22.9000 c6         1 7IZ       0.204300
     21 C33        -27.1450    -2.5450   -23.4560 c6         1 7IZ       0.140800
     22 C35        -25.5450    -1.1480   -22.2910 c6         1 7IZ       0.140800
     23 C37        -24.5300    -1.8950   -23.1460 c6         1 7IZ       0.204300
     24 C7         -15.0040    -3.0770   -23.3030 ca         1 7IZ      -0.096000
     25 C8         -15.2160    -2.6210   -22.0350 ca         1 7IZ      -0.103000
     26 C9         -16.5250    -2.5510   -21.5310 ca         1 7IZ      -0.102000
     27 F23        -19.5320    -6.0840   -23.0590 f          1 7IZ      -0.140000
     28 N14        -22.1980    -6.4120   -22.6160 nb         1 7IZ      -0.216000
     29 N16        -24.3770    -5.4810   -22.6580 nb         1 7IZ      -0.376000
     30 N19        -20.7180    -3.0510   -24.5310 nb         1 7IZ      -0.662000
     31 N26        -25.2980   -10.0690   -22.9240 n3         1 7IZ      -0.702600
     32 N31        -24.8530    -3.3210   -23.1350 nh         1 7IZ      -0.774300
     33 N34        -26.9160    -1.2860   -22.7570 n7         1 7IZ      -0.858400
     34 CL1        -19.1580    -2.7580   -21.5790 cl         1 7IZ      -0.202000
     35 H1         -16.6490    -4.6920   -27.2440 ha         1 7IZ       0.119000
     36 H2         -14.8040    -3.9550   -25.7770 ha         1 7IZ       0.115000
     37 H3         -18.9640    -4.6930   -26.3850 ha         1 7IZ       0.121000
     38 H4         -26.7650    -9.3390   -21.5920 h1         1 7IZ       0.027700
     39 H5         -26.2980   -11.8430   -22.3320 h1         1 7IZ       0.034200
     40 H6         -24.7770   -12.0890   -23.1980 h1         1 7IZ       0.034200
     41 H7         -24.1080    -9.4330   -20.2200 hc         1 7IZ       0.052200
     42 H8         -25.6600   -10.0860   -19.7400 hc         1 7IZ       0.052200
     43 H9         -26.0910    -8.8290   -24.4210 h1         1 7IZ       0.029700
     44 H10        -25.8080   -10.4940   -24.8990 h1         1 7IZ       0.029700
     45 H11        -27.2020   -10.0970   -23.8780 h1         1 7IZ       0.029700
     46 H12        -22.6000    -2.3210   -24.6260 h4         1 7IZ       0.018100
     47 H13        -25.9220    -7.3880   -22.7370 h1         1 7IZ       0.048200
     48 H14        -25.6950    -7.2810   -20.9970 h1         1 7IZ       0.048200
     49 H15        -24.8190   -12.1900   -20.4740 hc         1 7IZ       0.052200
     50 H16        -23.4740   -11.4050   -21.2880 hc         1 7IZ       0.052200
     51 H17        -26.4520    -3.7880   -21.8320 h1         1 7IZ       0.063700
     52 H18        -26.5000    -4.5820   -23.3970 h1         1 7IZ       0.063700
     53 H19        -28.1840    -2.8580   -23.3380 h1         1 7IZ       0.054700
     54 H20        -26.9620    -2.4700   -24.5360 h1         1 7IZ       0.054700
     55 H21        -25.4550    -1.5050   -21.2600 h1         1 7IZ       0.054700
     56 H22        -25.2730    -0.0920   -22.2760 h1         1 7IZ       0.054700
     57 H23        -23.5370    -1.7390   -22.7250 h1         1 7IZ       0.063700
     58 H24        -24.5350    -1.4960   -24.1650 h1         1 7IZ       0.063700
     59 H25        -14.0030    -3.1220   -23.7130 ha         1 7IZ       0.117000
     60 H26        -14.3910    -2.3000   -21.4140 ha         1 7IZ       0.119000
     61 H27        -16.6950    -2.1680   -20.5340 ha         1 7IZ       0.128000
     62 H29        -27.1440    -0.5180   -23.3720 hn         1 7IZ       0.415000
     63 O22        -23.9670    -7.6380   -22.0850 os         1 7IZ      -0.414300
     64 C30        -26.1430    -9.8620   -24.0750 c3         1 7IZ       0.153100
@<TRIPOS>BOND
     1     1     2 ar  
     2     1     6 ar  
     3     1    35 1   
     4     2     3 ar  
     5     2    36 1   
     6     3     4 ar  
     7     3    24 ar  
     8     4     5 ar  
     9     4    14 ar  
    10     5     6 ar  
    11     5    16 1   
    12     6    37 1   
    13     7     8 ar  
    14     7    10 ar  
    15     7    15 ar  
    16     8    17 ar  
    17     8    28 ar  
    18     9    28 ar  
    19     9    29 ar  
    20     9    63 1   
    21    10    29 ar  
    22    10    32 1   
    23    11    13 1   
    24    11    18 1   
    25    11    31 1   
    26    11    38 1   
    27    12    19 1   
    28    12    31 1   
    29    12    39 1   
    30    12    40 1   
    31    13    19 1   
    32    13    41 1   
    33    13    42 1   
    34    14    26 ar  
    35    14    34 1   
    36    15    30 ar  
    37    15    46 1   
    38    16    17 ar  
    39    16    30 ar  
    40    17    27 1   
    41    18    47 1   
    42    18    48 1   
    43    18    63 1   
    44    19    49 1   
    45    19    50 1   
    46    20    21 1   
    47    20    32 1   
    48    20    51 1   
    49    20    52 1   
    50    21    33 1   
    51    21    53 1   
    52    21    54 1   
    53    22    23 1   
    54    22    33 1   
    55    22    55 1   
    56    22    56 1   
    57    23    32 1   
    58    23    57 1   
    59    23    58 1   
    60    24    25 ar  
    61    24    59 1   
    62    25    26 ar  
    63    25    60 1   
    64    26    61 1   
    65    31    64 1   
    66    33    62 1   
    67    43    64 1   
    68    44    64 1   
    69    45    64 1   
@<TRIPOS>SUBSTRUCTURE
     1 7IZ         1 TEMP              0 ****  ****    0 ROOT
