@<TRIPOS>MOLECULE
7J0
   82    85     1     0     0
SMALL
bcc


@<TRIPOS>ATOM
      1 C33          2.7110    -0.8370     0.2620 c          1 7J0       0.671100
      2 O42          1.6970    -1.3440     0.7230 o          1 7J0      -0.614100
      3 C34          3.9390    -1.6430    -0.0990 c3         1 7J0      -0.151400
      4 C35          4.1110    -2.8750     0.7870 c3         1 7J0      -0.021100
      5 C36          5.3110    -3.6810     0.3730 ca         1 7J0      -0.083300
      6 C37          6.5550    -3.4620     0.9600 ca         1 7J0      -0.125000
      7 C38          7.6710    -4.1830     0.5560 ca         1 7J0      -0.128000
      8 C39          7.5590    -5.1360    -0.4480 ca         1 7J0      -0.130000
      9 C40          6.3240    -5.3610    -1.0430 ca         1 7J0      -0.128000
     10 C41          5.2110    -4.6390    -0.6340 ca         1 7J0      -0.125000
     11 C22          1.6760     1.3570     0.2780 c3         1 7J0       0.063700
     12 C23          1.9790     2.7720    -0.2030 c3         1 7J0      -0.176400
     13 C24          3.0430     3.4720     0.6310 c          1 7J0       0.668100
     14 C26          2.9230     5.3800    -0.9580 c6         1 7J0       0.094000
     15 C27          4.0450     5.4650    -1.9850 c6         1 7J0      -0.100400
     16 C28          5.2650     6.1610    -1.3890 c6         1 7J0      -0.074400
     17 C29          5.6810     5.5120    -0.0710 c6         1 7J0      -0.100400
     18 C30          4.4990     5.4120     0.8880 c6         1 7J0       0.094000
     19 C02          0.4510     0.8600    -0.4930 c          1 7J0       0.660100
     20 N25          3.3920     4.7160     0.2490 n          1 7J0      -0.472800
     21 O31          3.5340     2.9180     1.6070 o          1 7J0      -0.603100
     22 N32          2.7910     0.4820     0.0210 ns         1 7J0      -0.554900
     23 O20         -2.1280    -1.4660     1.0690 os         1 7J0      -0.402600
     24 N03         -0.7020     0.9130     0.1880 ns         1 7J0      -0.540900
     25 C04         -1.9350     0.4160    -0.3630 c3         1 7J0       0.032700
     26 C05         -3.1060     1.0380     0.3910 c          1 7J0       0.671100
     27 O18         -2.9720     1.5450     1.4930 o          1 7J0      -0.597100
     28 C19         -2.0210    -1.1070    -0.2800 c3         1 7J0       0.113400
     29 C21         -2.0060    -2.8510     1.2740 c3         1 7J0       0.121700
     30 C11         -8.7460    -1.1900    -1.0980 ca         1 7J0      -0.106000
     31 C10         -8.6810     0.1290    -1.4430 ca         1 7J0      -0.132000
     32 C12         -7.7680    -1.7600    -0.2470 ca         1 7J0      -0.041000
     33 C14         -5.7530    -1.5460     1.1030 ca         1 7J0      -0.115000
     34 C13         -6.7100    -0.9500     0.2470 ca         1 7J0      -0.022000
     35 C15         -5.8430    -2.8690     1.4460 ca         1 7J0      -0.125000
     36 N06         -4.2820     0.9310    -0.2420 ns         1 7J0      -0.572900
     37 C07         -5.5490     1.3210     0.3430 c3         1 7J0       0.148300
     38 C08         -6.6580     0.4240    -0.1350 ca         1 7J0      -0.103300
     39 C09         -7.6280     0.9330    -0.9580 ca         1 7J0      -0.114000
     40 C16         -6.8900    -3.6700     0.9500 ca         1 7J0      -0.124000
     41 C17         -7.8320    -3.1230     0.1220 ca         1 7J0      -0.120000
     42 H25          3.8350    -1.9540    -1.1440 hc         1 7J0       0.062200
     43 H26          4.8330    -1.0170    -0.0550 hc         1 7J0       0.062200
     44 H34          4.2150    -2.5630     1.8280 hc         1 7J0       0.062700
     45 H35          3.2120    -3.4900     0.7300 hc         1 7J0       0.062700
     46 H36          6.6500    -2.7220     1.7470 ha         1 7J0       0.130500
     47 H37          8.6280    -4.0040     1.0290 ha         1 7J0       0.129000
     48 H38          8.4260    -5.7030    -0.7610 ha         1 7J0       0.129000
     49 H39          6.2270    -6.1040    -1.8240 ha         1 7J0       0.129000
     50 H40          4.2500    -4.8240    -1.1020 ha         1 7J0       0.130500
     51 H4           1.4560     1.3760     1.3490 h1         1 7J0       0.086700
     52 H6           2.2760     2.7360    -1.2550 hc         1 7J0       0.078200
     53 H7           1.0560     3.3570    -0.1670 hc         1 7J0       0.078200
     54 H8           2.5950     6.3880    -0.6830 h1         1 7J0       0.057700
     55 H9           2.0530     4.8740    -1.3640 h1         1 7J0       0.057700
     56 H10          4.3100     4.4540    -2.3110 hc         1 7J0       0.049950
     57 H11          3.6890     6.0020    -2.8670 hc         1 7J0       0.049950
     58 H12          6.0950     6.1470    -2.0970 hc         1 7J0       0.043200
     59 H13          5.0220     7.2140    -1.2110 hc         1 7J0       0.043200
     60 H14          6.0770     4.5080    -0.2560 hc         1 7J0       0.049950
     61 H15          6.4800     6.0870     0.4020 hc         1 7J0       0.049950
     62 H23          4.7740     4.8960     1.8030 h1         1 7J0       0.057700
     63 H24          4.1580     6.4140     1.1650 h1         1 7J0       0.057700
     64 H33          3.6500     0.8690    -0.3330 hn         1 7J0       0.325500
     65 H28         -1.9910     0.6970    -1.4180 h1         1 7J0       0.084700
     66 H16         -1.1210    -1.5350    -0.7400 h1         1 7J0       0.042200
     67 H17         -2.8830    -1.4670    -0.8590 h1         1 7J0       0.042200
     68 H1          -2.1300    -3.0440     2.3390 h1         1 7J0       0.032367
     69 H2          -2.7700    -3.4180     0.7290 h1         1 7J0       0.032367
     70 H3          -1.0210    -3.2210     0.9660 h1         1 7J0       0.032367
     71 H27         -0.6830     1.1050     1.1780 hn         1 7J0       0.348500
     72 H21         -9.5470    -1.8170    -1.4720 ha         1 7J0       0.132000
     73 H22         -9.4290     0.5650    -2.0910 ha         1 7J0       0.133000
     74 H5          -4.9360    -0.9610     1.5010 ha         1 7J0       0.151000
     75 H20         -5.1030    -3.3050     2.1050 ha         1 7J0       0.134000
     76 H29         -4.2960     0.5860    -1.1890 hn         1 7J0       0.317500
     77 H30         -5.4520     1.2780     1.4290 h1         1 7J0       0.062200
     78 H31         -5.7850     2.3570     0.0880 h1         1 7J0       0.062200
     79 H32         -7.5870     1.9760    -1.2480 ha         1 7J0       0.130000
     80 H18         -6.9480    -4.7140     1.2280 ha         1 7J0       0.132000
     81 H19         -8.6420    -3.7310    -0.2640 ha         1 7J0       0.130000
     82 O01          0.5320     0.5160    -1.6610 o          1 7J0      -0.614100
@<TRIPOS>BOND
     1     1     2 2   
     2     1     3 1   
     3     1    22 1   
     4     3     4 1   
     5     3    42 1   
     6     3    43 1   
     7     4     5 1   
     8     4    44 1   
     9     4    45 1   
    10     5     6 ar  
    11     5    10 ar  
    12     6     7 ar  
    13     6    46 1   
    14     7     8 ar  
    15     7    47 1   
    16     8     9 ar  
    17     8    48 1   
    18     9    10 ar  
    19     9    49 1   
    20    10    50 1   
    21    11    12 1   
    22    11    19 1   
    23    11    22 1   
    24    11    51 1   
    25    12    13 1   
    26    12    52 1   
    27    12    53 1   
    28    13    20 1   
    29    13    21 2   
    30    14    15 1   
    31    14    20 1   
    32    14    54 1   
    33    14    55 1   
    34    15    16 1   
    35    15    56 1   
    36    15    57 1   
    37    16    17 1   
    38    16    58 1   
    39    16    59 1   
    40    17    18 1   
    41    17    60 1   
    42    17    61 1   
    43    18    20 1   
    44    18    62 1   
    45    18    63 1   
    46    19    24 1   
    47    19    82 2   
    48    22    64 1   
    49    23    28 1   
    50    23    29 1   
    51    24    25 1   
    52    24    71 1   
    53    25    26 1   
    54    25    28 1   
    55    25    65 1   
    56    26    27 2   
    57    26    36 1   
    58    28    66 1   
    59    28    67 1   
    60    29    68 1   
    61    29    69 1   
    62    29    70 1   
    63    30    31 ar  
    64    30    32 ar  
    65    30    72 1   
    66    31    39 ar  
    67    31    73 1   
    68    32    34 ar  
    69    32    41 ar  
    70    33    34 ar  
    71    33    35 ar  
    72    33    74 1   
    73    34    38 ar  
    74    35    40 ar  
    75    35    75 1   
    76    36    37 1   
    77    36    76 1   
    78    37    38 1   
    79    37    77 1   
    80    37    78 1   
    81    38    39 ar  
    82    39    79 1   
    83    40    41 ar  
    84    40    80 1   
    85    41    81 1   
@<TRIPOS>SUBSTRUCTURE
     1 7J0         1 TEMP              0 ****  ****    0 ROOT
