@<TRIPOS>MOLECULE
7J0
   82    85     1     0     0
SMALL
No Charge or Current Charge


@<TRIPOS>ATOM
      1 C33          3.2890    -1.6610     0.6240 c          1 7J0       0.604100
      2 O42          2.8860    -1.8990     1.7530 o          1 7J0      -0.614100
      3 C34          4.5140    -2.3560     0.0260 c3         1 7J0      -0.151400
      4 C35          5.8220    -1.7810     0.6150 c3         1 7J0      -0.021100
      5 C36          7.0560    -2.4360     0.0100 ca         1 7J0      -0.083300
      6 C37          7.6920    -1.8590    -1.1070 ca         1 7J0      -0.107000
      7 C38          8.8290    -2.4660    -1.6680 ca         1 7J0      -0.110000
      8 C39          9.3370    -3.6540    -1.1160 ca         1 7J0      -0.112000
      9 C40          8.7060    -4.2350    -0.0030 ca         1 7J0      -0.110000
     10 C41          7.5680    -3.6280     0.5580 ca         1 7J0      -0.107000
     11 C22          1.4920     0.0630     0.1430 c3         1 7J0       0.063700
     12 C23          1.8480     1.5630    -0.0390 c3         1 7J0      -0.176400
     13 C24          2.9820     2.1000     0.8540 c          1 7J0       0.601100
     14 C26          2.9410     4.3560    -0.2820 c6         1 7J0       0.094000
     15 C27          3.8590     5.3840    -0.9830 c6         1 7J0      -0.100400
     16 C28          4.9290     5.9340    -0.0250 c6         1 7J0      -0.074400
     17 C29          5.7460     4.7600     0.5420 c6         1 7J0      -0.100400
     18 C30          4.8370     3.7330     1.2550 c6         1 7J0       0.094000
     19 C02          0.2370    -0.3380    -0.6900 c          1 7J0       0.593100
     20 N25          3.6720     3.2650     0.4420 n          1 7J0      -0.405800
     21 O31          3.3060     1.5150     1.8800 o          1 7J0      -0.603100
     22 N32          2.6540    -0.7790    -0.2210 ns         1 7J0      -0.487900
     23 O20         -2.9810    -1.6390     0.8670 os         1 7J0      -0.449000
     24 N03         -0.9530     0.1970    -0.2470 ns         1 7J0      -0.473900
     25 C04         -2.2850    -0.0680    -0.8470 c3         1 7J0       0.032700
     26 C05         -3.3150     0.9950    -0.3800 c          1 7J0       0.604100
     27 O18         -3.0440     1.8780     0.4260 o          1 7J0      -0.597100
     28 C19         -2.7830    -1.5060    -0.5520 c3         1 7J0       0.136600
     29 C21         -3.4970    -2.9140     1.2810 c3         1 7J0       0.144900
     30 C11         -9.4450    -0.4720    -1.1570 ca         1 7J0      -0.088000
     31 C10         -9.0840     0.5910    -1.9980 ca         1 7J0      -0.114000
     32 C12         -8.6020    -0.8500    -0.0970 ca         1 7J0      -0.041000
     33 C14         -6.5620    -0.5700     1.2070 ca         1 7J0      -0.097000
     34 C13         -7.3850    -0.1590     0.1300 ca         1 7J0      -0.022000
     35 C15         -6.9430    -1.6410     2.0320 ca         1 7J0      -0.107000
     36 N06         -4.5730     0.8850    -0.9330 ns         1 7J0      -0.505900
     37 C07         -5.7240     1.6990    -0.5450 c3         1 7J0       0.148300
     38 C08         -7.0230     0.9180    -0.7230 ca         1 7J0      -0.103300
     39 C09         -7.8810     1.2800    -1.7820 ca         1 7J0      -0.096000
     40 C16         -8.1490    -2.3180     1.7970 ca         1 7J0      -0.106000
     41 C17         -8.9770    -1.9230     0.7350 ca         1 7J0      -0.102000
     42 H25          4.4670    -3.4250     0.2630 hc         1 7J0       0.062200
     43 H26          4.5360    -2.2160    -1.0610 hc         1 7J0       0.062200
     44 H34          5.8470    -0.6970     0.4460 hc         1 7J0       0.062700
     45 H35          5.8200    -1.9180     1.7040 hc         1 7J0       0.062700
     46 H36          7.3050    -0.9400    -1.5430 ha         1 7J0       0.112500
     47 H37          9.3160    -2.0160    -2.5300 ha         1 7J0       0.111000
     48 H38         10.2160    -4.1240    -1.5500 ha         1 7J0       0.111000
     49 H39          9.0970    -5.1560     0.4250 ha         1 7J0       0.111000
     50 H40          7.0840    -4.0850     1.4180 ha         1 7J0       0.112500
     51 H4           1.2320    -0.1090     1.1960 h1         1 7J0       0.086700
     52 H6           2.0880     1.7810    -1.0850 hc         1 7J0       0.078200
     53 H7           0.9770     2.2040     0.1420 hc         1 7J0       0.078200
     54 H8           2.3100     4.8860     0.4470 h1         1 7J0       0.057700
     55 H9           2.2660     3.9400    -1.0410 h1         1 7J0       0.057700
     56 H10          4.3460     4.9080    -1.8450 hc         1 7J0       0.049950
     57 H11          3.2540     6.2090    -1.3840 hc         1 7J0       0.049950
     58 H12          5.5890     6.6340    -0.5550 hc         1 7J0       0.043200
     59 H13          4.4550     6.4960     0.7920 hc         1 7J0       0.043200
     60 H14          6.2910     4.2620    -0.2720 hc         1 7J0       0.049950
     61 H15          6.5050     5.1330     1.2430 hc         1 7J0       0.049950
     62 H23          5.4520     2.8690     1.5440 h1         1 7J0       0.057700
     63 H24          4.4530     4.1810     2.1830 h1         1 7J0       0.057700
     64 H33          3.0260    -0.7040    -1.1610 hn         1 7J0       0.325500
     65 H28         -2.1980     0.0430    -1.9360 h1         1 7J0       0.084700
     66 H16         -2.0440    -2.2350    -0.9100 h1         1 7J0       0.042200
     67 H17         -3.7220    -1.6910    -1.0920 h1         1 7J0       0.042200
     68 H1          -3.6220    -2.9390     2.3710 h1         1 7J0       0.032367
     69 H2          -4.4760    -3.1070     0.8210 h1         1 7J0       0.032367
     70 H3          -2.8130    -3.7240     0.9960 h1         1 7J0       0.032367
     71 H27         -0.9170     0.7920     0.5750 hn         1 7J0       0.348500
     72 H21        -10.3790    -1.0010    -1.3320 ha         1 7J0       0.114000
     73 H22         -9.7370     0.8810    -2.8180 ha         1 7J0       0.115000
     74 H5          -5.6200    -0.0710     1.4190 ha         1 7J0       0.133000
     75 H20         -6.3010    -1.9470     2.8550 ha         1 7J0       0.116000
     76 H29         -4.7240     0.1400    -1.6020 hn         1 7J0       0.317500
     77 H30         -5.6260     2.0160     0.5010 h1         1 7J0       0.062200
     78 H31         -5.7360     2.6050    -1.1650 h1         1 7J0       0.062200
     79 H32         -7.6140     2.1000    -2.4460 ha         1 7J0       0.112000
     80 H18         -8.4420    -3.1470     2.4370 ha         1 7J0       0.114000
     81 H19         -9.9110    -2.4520     0.5590 ha         1 7J0       0.112000
     82 O01          0.2840    -1.0690    -1.6730 o          1 7J0      -0.614100
@<TRIPOS>BOND
     1     1     2 2   
     2     1     3 1   
     3     1    22 1   
     4     3     4 1   
     5     3    42 1   
     6     3    43 1   
     7     4     5 1   
     8     4    44 1   
     9     4    45 1   
    10     5     6 ar  
    11     5    10 ar  
    12     6     7 ar  
    13     6    46 1   
    14     7     8 ar  
    15     7    47 1   
    16     8     9 ar  
    17     8    48 1   
    18     9    10 ar  
    19     9    49 1   
    20    10    50 1   
    21    11    12 1   
    22    11    19 1   
    23    11    22 1   
    24    11    51 1   
    25    12    13 1   
    26    12    52 1   
    27    12    53 1   
    28    13    20 1   
    29    13    21 2   
    30    14    15 1   
    31    14    20 1   
    32    14    54 1   
    33    14    55 1   
    34    15    16 1   
    35    15    56 1   
    36    15    57 1   
    37    16    17 1   
    38    16    58 1   
    39    16    59 1   
    40    17    18 1   
    41    17    60 1   
    42    17    61 1   
    43    18    20 1   
    44    18    62 1   
    45    18    63 1   
    46    19    24 1   
    47    19    82 2   
    48    22    64 1   
    49    23    28 1   
    50    23    29 1   
    51    24    25 1   
    52    24    71 1   
    53    25    26 1   
    54    25    28 1   
    55    25    65 1   
    56    26    27 2   
    57    26    36 1   
    58    28    66 1   
    59    28    67 1   
    60    29    68 1   
    61    29    69 1   
    62    29    70 1   
    63    30    31 ar  
    64    30    32 ar  
    65    30    72 1   
    66    31    39 ar  
    67    31    73 1   
    68    32    34 ar  
    69    32    41 ar  
    70    33    34 ar  
    71    33    35 ar  
    72    33    74 1   
    73    34    38 ar  
    74    35    40 ar  
    75    35    75 1   
    76    36    37 1   
    77    36    76 1   
    78    37    38 1   
    79    37    77 1   
    80    37    78 1   
    81    38    39 ar  
    82    39    79 1   
    83    40    41 ar  
    84    40    80 1   
    85    41    81 1   
@<TRIPOS>SUBSTRUCTURE
     1 7J0         1 TEMP              0 ****  ****    0 ROOT
