@<TRIPOS>MOLECULE
7J1
   75    78     1     0     0
SMALL
bcc


@<TRIPOS>ATOM
      1 C32         -3.4170     1.0600     0.2260 c          1 7J1       0.674100
      2 O41         -2.6590     1.6860     0.9530 o          1 7J1      -0.600100
      3 C33         -4.7300     1.6240    -0.2680 c3         1 7J1      -0.151400
      4 C34         -5.4470     2.4500     0.7990 c3         1 7J1      -0.021100
      5 C35         -6.7450     3.0030     0.2790 ca         1 7J1      -0.084300
      6 C36         -7.9440     2.3230     0.4760 ca         1 7J1      -0.124500
      7 C37         -9.1370     2.8190    -0.0340 ca         1 7J1      -0.128000
      8 C38         -9.1470     4.0060    -0.7530 ca         1 7J1      -0.129000
      9 C39         -7.9570     4.6930    -0.9580 ca         1 7J1      -0.128000
     10 C40         -6.7680     4.1940    -0.4450 ca         1 7J1      -0.124500
     11 N31         -3.1320    -0.1870    -0.1910 ns         1 7J1      -0.556900
     12 C22         -1.8800    -0.8120     0.1280 c3         1 7J1       0.052700
     13 C23         -1.8930    -2.2710    -0.3150 c3         1 7J1      -0.178400
     14 C24         -2.8460    -3.1160     0.4970 c          1 7J1       0.572900
     15 O30         -3.3940    -2.7280     1.4970 o          1 7J1      -0.519100
     16 N25         -3.0530    -4.4120     0.0340 n          1 7J1      -0.088200
     17 C29         -3.9010    -5.3220     0.6400 cc         1 7J1      -0.136800
     18 C28         -3.8440    -6.4810    -0.0640 cd         1 7J1      -0.181000
     19 C26         -2.4580    -5.0170    -1.0600 cc         1 7J1      -0.136800
     20 C27         -2.9250    -6.2890    -1.1430 cd         1 7J1      -0.181000
     21 C02         -0.7170    -0.1060    -0.5810 c          1 7J1       0.656100
     22 O01         -0.8670     0.4840    -1.6360 o          1 7J1      -0.603100
     23 N03          0.4620    -0.2590     0.0370 ns         1 7J1      -0.551900
     24 C04          1.7120     0.1750    -0.5250 c3         1 7J1       0.033700
     25 C05          2.7980    -0.8310    -0.1410 c          1 7J1       0.665100
     26 O18          2.6430    -1.6280     0.7710 o          1 7J1      -0.603100
     27 C19          2.1100     1.5690    -0.0540 c3         1 7J1       0.120400
     28 C21          2.7260     2.7670     1.8520 c3         1 7J1       0.120700
     29 C11          8.6740     0.8490    -1.2040 ca         1 7J1      -0.105000
     30 C10          8.3420    -0.1460    -2.0770 ca         1 7J1      -0.132000
     31 C12          7.8590     1.1200    -0.0790 ca         1 7J1      -0.041000
     32 C14          5.8960     0.6350     1.2800 ca         1 7J1      -0.115000
     33 C13          6.6860     0.3480     0.1400 ca         1 7J1      -0.021000
     34 C15          6.2540     1.6300     2.1510 ca         1 7J1      -0.125000
     35 N06          3.9210    -0.7270    -0.8610 ns         1 7J1      -0.568900
     36 C07          5.1150    -1.5150    -0.6200 c3         1 7J1       0.146300
     37 C08          6.3560    -0.6820    -0.7900 ca         1 7J1      -0.104300
     38 C09          7.1760    -0.9100    -1.8640 ca         1 7J1      -0.113000
     39 C16          7.4150     2.3950     1.9280 ca         1 7J1      -0.124000
     40 C17          8.2000     2.1420     0.8370 ca         1 7J1      -0.119000
     41 H26         -4.5130     2.2530    -1.1370 hc         1 7J1       0.062700
     42 H27         -5.3800     0.8220    -0.6250 hc         1 7J1       0.062700
     43 H28         -5.6380     1.8240     1.6750 hc         1 7J1       0.063200
     44 H29         -4.8000     3.2650     1.1250 hc         1 7J1       0.063200
     45 H30         -7.9460     1.3970     1.0410 ha         1 7J1       0.130000
     46 H31        -10.0600     2.2780     0.1340 ha         1 7J1       0.130000
     47 H32        -10.0760     4.3960    -1.1480 ha         1 7J1       0.129000
     48 H33         -7.9550     5.6220    -1.5150 ha         1 7J1       0.130000
     49 H34         -5.8430     4.7380    -0.6040 ha         1 7J1       0.130000
     50 H25         -3.7450    -0.6330    -0.8540 hn         1 7J1       0.320500
     51 H22         -1.7170    -0.7660     1.2080 h1         1 7J1       0.100700
     52 H23         -2.1330    -2.3370    -1.3790 hc         1 7J1       0.087700
     53 H24         -0.8920    -2.6950    -0.2020 hc         1 7J1       0.087700
     54 H15         -4.4680    -5.0590     1.5160 h4         1 7J1       0.174500
     55 H1          -4.3980    -7.3790     0.1570 ha         1 7J1       0.155500
     56 H12         -1.7470    -4.5000    -1.6820 h4         1 7J1       0.174500
     57 H14         -2.6450    -7.0140    -1.8910 ha         1 7J1       0.155500
     58 H16          0.5000    -0.7400     0.9240 hn         1 7J1       0.348500
     59 H17          1.6160     0.2080    -1.6130 h1         1 7J1       0.087700
     60 H3           1.3030     2.2730    -0.2980 h1         1 7J1       0.039700
     61 H4           3.0010     1.9030    -0.6050 h1         1 7J1       0.039700
     62 H5           3.6500     3.1410     1.3970 h1         1 7J1       0.032700
     63 H6           1.9430     3.5210     1.7090 h1         1 7J1       0.032700
     64 H7           2.8940     2.6410     2.9210 h1         1 7J1       0.032700
     65 H10          8.9670    -0.3540    -2.9350 ha         1 7J1       0.134000
     66 H11          5.0020     0.0630     1.4840 ha         1 7J1       0.149000
     67 H2           5.6400     1.8290     3.0190 ha         1 7J1       0.134000
     68 H18          3.9450    -0.0920    -1.6440 hn         1 7J1       0.317500
     69 H19          5.0510    -1.9310     0.3850 h1         1 7J1       0.063700
     70 H20          5.1500    -2.3610    -1.3100 h1         1 7J1       0.063700
     71 H21          6.9250    -1.6930    -2.5700 ha         1 7J1       0.130000
     72 H13          7.6850     3.1780     2.6250 ha         1 7J1       0.132000
     73 H8           9.0980     2.7220     0.6610 ha         1 7J1       0.131000
     74 H9           9.5680     1.4430    -1.3580 ha         1 7J1       0.133000
     75 O20          2.3510     1.5190     1.3230 os         1 7J1      -0.402600
@<TRIPOS>BOND
     1     1     2 2   
     2     1     3 1   
     3     1    11 1   
     4     3     4 1   
     5     3    41 1   
     6     3    42 1   
     7     4     5 1   
     8     4    43 1   
     9     4    44 1   
    10     5     6 ar  
    11     5    10 ar  
    12     6     7 ar  
    13     6    45 1   
    14     7     8 ar  
    15     7    46 1   
    16     8     9 ar  
    17     8    47 1   
    18     9    10 ar  
    19     9    48 1   
    20    10    49 1   
    21    11    12 1   
    22    11    50 1   
    23    12    13 1   
    24    12    21 1   
    25    12    51 1   
    26    13    14 1   
    27    13    52 1   
    28    13    53 1   
    29    14    15 2   
    30    14    16 1   
    31    16    17 1   
    32    16    19 1   
    33    17    18 2   
    34    17    54 1   
    35    18    20 1   
    36    18    55 1   
    37    19    20 2   
    38    19    56 1   
    39    20    57 1   
    40    21    22 2   
    41    21    23 1   
    42    23    24 1   
    43    23    58 1   
    44    24    25 1   
    45    24    27 1   
    46    24    59 1   
    47    25    26 2   
    48    25    35 1   
    49    27    60 1   
    50    27    61 1   
    51    27    75 1   
    52    28    62 1   
    53    28    63 1   
    54    28    64 1   
    55    28    75 1   
    56    29    30 ar  
    57    29    31 ar  
    58    29    74 1   
    59    30    38 ar  
    60    30    65 1   
    61    31    33 ar  
    62    31    40 ar  
    63    32    33 ar  
    64    32    34 ar  
    65    32    66 1   
    66    33    37 ar  
    67    34    39 ar  
    68    34    67 1   
    69    35    36 1   
    70    35    68 1   
    71    36    37 1   
    72    36    69 1   
    73    36    70 1   
    74    37    38 ar  
    75    38    71 1   
    76    39    40 ar  
    77    39    72 1   
    78    40    73 1   
@<TRIPOS>SUBSTRUCTURE
     1 7J1         1 TEMP              0 ****  ****    0 ROOT
