@<TRIPOS>MOLECULE
7J1
   75    78     1     0     0
SMALL
No Charge or Current Charge


@<TRIPOS>ATOM
      1 C32         -3.5790     1.3620     0.7140 c          1 7J1       0.607100
      2 O41         -3.1930     1.5390     1.8610 o          1 7J1      -0.600100
      3 C33         -4.8080     2.0720     0.1430 c3         1 7J1      -0.151400
      4 C34         -6.1130     1.4510     0.6870 c3         1 7J1      -0.021100
      5 C35         -7.3500     2.1290     0.1120 ca         1 7J1      -0.084300
      6 C36         -7.9580     1.6280    -1.0550 ca         1 7J1      -0.106500
      7 C37         -9.0960     2.2570    -1.5880 ca         1 7J1      -0.110000
      8 C38         -9.6330     3.3920    -0.9570 ca         1 7J1      -0.111000
      9 C39         -9.0290     3.8980     0.2060 ca         1 7J1      -0.110000
     10 C40         -7.8910     3.2690     0.7390 ca         1 7J1      -0.106500
     11 N31         -2.9160     0.5420    -0.1720 ns         1 7J1      -0.489900
     12 C22         -1.7280    -0.2800     0.1530 c3         1 7J1       0.052700
     13 C23         -2.0360    -1.7850    -0.0850 c3         1 7J1      -0.178400
     14 C24         -3.1290    -2.4160     0.8010 c          1 7J1       0.572900
     15 O30         -3.6000    -1.8070     1.7570 o          1 7J1      -0.519100
     16 N25         -3.5710    -3.7320     0.4840 n          1 7J1       0.013200
     17 C29         -4.5830    -4.4260     1.1320 cc         1 7J1      -0.169500
     18 C28         -4.7420    -5.6700     0.5690 cd         1 7J1      -0.163000
     19 C26         -3.0870    -4.5810    -0.5060 cc         1 7J1      -0.169500
     20 C27         -3.7780    -5.7690    -0.4860 cd         1 7J1      -0.163000
     21 C02         -0.4920     0.1950    -0.6700 c          1 7J1       0.589100
     22 O01         -0.5710     0.9580    -1.6260 o          1 7J1      -0.603100
     23 N03          0.7180    -0.3150    -0.2530 ns         1 7J1      -0.484900
     24 C04          2.0370     0.0190    -0.8500 c3         1 7J1       0.033700
     25 C05          3.1080    -1.0210    -0.4230 c          1 7J1       0.598100
     26 O18          2.8740    -1.9410     0.3530 o          1 7J1      -0.603100
     27 C19          2.4850     1.4640    -0.5090 c3         1 7J1       0.143600
     28 C21          3.1580     2.8360     1.3660 c3         1 7J1       0.143900
     29 C11          9.1760     0.6970    -1.1760 ca         1 7J1      -0.087000
     30 C10          8.8500    -0.3500    -2.0500 ca         1 7J1      -0.114000
     31 C12          8.3260     1.0080    -0.0990 ca         1 7J1      -0.041000
     32 C14          6.3050     0.6090     1.2030 ca         1 7J1      -0.097000
     33 C13          7.1370     0.2660     0.1100 ca         1 7J1      -0.021000
     34 C15          6.6510     1.6660     2.0620 ca         1 7J1      -0.107000
     35 N06          4.3580    -0.8460    -0.9760 ns         1 7J1      -0.501900
     36 C07          5.5410    -1.6280    -0.6210 c3         1 7J1       0.146300
     37 C08          6.8100    -0.7950    -0.7780 ca         1 7J1      -0.104300
     38 C09          7.6740    -1.0890    -1.8520 ca         1 7J1      -0.095000
     39 C16          7.8300     2.3940     1.8450 ca         1 7J1      -0.106000
     40 C17          8.6660     2.0660     0.7660 ca         1 7J1      -0.101000
     41 H26         -4.7760     3.1270     0.4380 hc         1 7J1       0.062700
     42 H27         -4.8170     1.9910    -0.9500 hc         1 7J1       0.062700
     43 H28         -6.1280     0.3790     0.4540 hc         1 7J1       0.063200
     44 H29         -6.1200     1.5230     1.7830 hc         1 7J1       0.063200
     45 H30         -7.5480     0.7510    -1.5510 ha         1 7J1       0.112000
     46 H31         -9.5620     1.8650    -2.4900 ha         1 7J1       0.112000
     47 H32        -10.5140     3.8790    -1.3700 ha         1 7J1       0.111000
     48 H33         -9.4430     4.7780     0.6950 ha         1 7J1       0.112000
     49 H34         -7.4280     3.6690     1.6390 ha         1 7J1       0.112000
     50 H25         -3.2750     0.5160    -1.1200 hn         1 7J1       0.320500
     51 H22         -1.4640    -0.1390     1.2100 h1         1 7J1       0.100700
     52 H23         -2.2900    -1.9750    -1.1340 hc         1 7J1       0.087700
     53 H24         -1.1410    -2.4060     0.0330 hc         1 7J1       0.087700
     54 H15         -5.0940    -3.9340     1.9520 h4         1 7J1       0.156500
     55 H1          -5.4580    -6.4290     0.8700 ha         1 7J1       0.137500
     56 H12         -2.2730    -4.2440    -1.1370 h4         1 7J1       0.156500
     57 H14         -3.6190    -6.6200    -1.1430 ha         1 7J1       0.137500
     58 H16          0.7090    -0.9410     0.5460 hn         1 7J1       0.348500
     59 H17          1.9480    -0.0590    -1.9410 h1         1 7J1       0.087700
     60 H3           1.7180     2.1760    -0.8400 h1         1 7J1       0.039700
     61 H4           3.4130     1.7000    -1.0460 h1         1 7J1       0.039700
     62 H5           4.1260     3.0780     0.9090 h1         1 7J1       0.032700
     63 H6           2.4430     3.6290     1.1100 h1         1 7J1       0.032700
     64 H7           3.2880     2.8300     2.4560 h1         1 7J1       0.032700
     65 H10          9.5090    -0.5880    -2.8820 ha         1 7J1       0.116000
     66 H11          5.3830     0.0690     1.4030 ha         1 7J1       0.131000
     67 H2           6.0030     1.9200     2.8980 ha         1 7J1       0.116000
     68 H18          4.4790    -0.0720    -1.6190 hn         1 7J1       0.317500
     69 H19          5.4600    -1.9840     0.4150 h1         1 7J1       0.063700
     70 H20          5.5830    -2.5130    -1.2700 h1         1 7J1       0.063700
     71 H21          7.4340    -1.8960    -2.5420 ha         1 7J1       0.112000
     72 H13          8.0960     3.2120     2.5110 ha         1 7J1       0.114000
     73 H8           9.5790     2.6350     0.6040 ha         1 7J1       0.113000
     74 H9          10.0890     1.2660    -1.3370 ha         1 7J1       0.115000
     75 O20          2.6850     1.5570     0.9130 os         1 7J1      -0.449000
@<TRIPOS>BOND
     1     1     2 2   
     2     1     3 1   
     3     1    11 1   
     4     3     4 1   
     5     3    41 1   
     6     3    42 1   
     7     4     5 1   
     8     4    43 1   
     9     4    44 1   
    10     5     6 ar  
    11     5    10 ar  
    12     6     7 ar  
    13     6    45 1   
    14     7     8 ar  
    15     7    46 1   
    16     8     9 ar  
    17     8    47 1   
    18     9    10 ar  
    19     9    48 1   
    20    10    49 1   
    21    11    12 1   
    22    11    50 1   
    23    12    13 1   
    24    12    21 1   
    25    12    51 1   
    26    13    14 1   
    27    13    52 1   
    28    13    53 1   
    29    14    15 2   
    30    14    16 1   
    31    16    17 1   
    32    16    19 1   
    33    17    18 2   
    34    17    54 1   
    35    18    20 1   
    36    18    55 1   
    37    19    20 2   
    38    19    56 1   
    39    20    57 1   
    40    21    22 2   
    41    21    23 1   
    42    23    24 1   
    43    23    58 1   
    44    24    25 1   
    45    24    27 1   
    46    24    59 1   
    47    25    26 2   
    48    25    35 1   
    49    27    60 1   
    50    27    61 1   
    51    27    75 1   
    52    28    62 1   
    53    28    63 1   
    54    28    64 1   
    55    28    75 1   
    56    29    30 ar  
    57    29    31 ar  
    58    29    74 1   
    59    30    38 ar  
    60    30    65 1   
    61    31    33 ar  
    62    31    40 ar  
    63    32    33 ar  
    64    32    34 ar  
    65    32    66 1   
    66    33    37 ar  
    67    34    39 ar  
    68    34    67 1   
    69    35    36 1   
    70    35    68 1   
    71    36    37 1   
    72    36    69 1   
    73    36    70 1   
    74    37    38 ar  
    75    38    71 1   
    76    39    40 ar  
    77    39    72 1   
    78    40    73 1   
@<TRIPOS>SUBSTRUCTURE
     1 7J1         1 TEMP              0 ****  ****    0 ROOT
