@<TRIPOS>MOLECULE
7J2
   57    60     1     0     0
SMALL
abcg2


@<TRIPOS>ATOM
      1 C1          28.7270    25.4800    31.6980 cp         1 7J2      -0.044000
      2 C2          28.6590    24.1870    32.2240 ca         1 7J2      -0.080000
      3 C3          28.9130    23.9620    33.5710 ca         1 7J2      -0.142000
      4 C11         23.2700    22.4250    27.9990 c5         1 7J2       0.141600
      5 C13         22.0400    24.3520    28.1780 c          1 7J2       0.707100
      6 C17         24.5730    23.9050    30.3830 c3         1 7J2      -0.091600
      7 C18         26.2250    22.5730    29.0070 c3         1 7J2      -0.091600
      8 C20         25.3400    27.2500    26.3850 ca         1 7J2       0.406900
      9 C22         23.6750    25.9770    27.2910 ca         1 7J2       0.306900
     10 C23         22.8130    27.0790    27.2770 ca         1 7J2      -0.293000
     11 C24         23.3470    28.2500    26.7690 ca         1 7J2       0.160900
     12 C25         27.9190    26.1530    27.6600 ca         1 7J2       0.106300
     13 C26         27.6300    26.3490    26.1800 c3         1 7J2       0.209200
     14 C28         28.9090    26.7330    25.4330 c3         1 7J2      -0.100100
     15 C30         28.8330    24.8280    29.2700 ca         1 7J2       0.118900
     16 C4          29.2330    25.0380    34.3740 ca         1 7J2       0.169000
     17 C5          29.3160    26.3450    33.9070 ca         1 7J2      -0.104300
     18 C6          29.0560    26.5380    32.5530 ca         1 7J2      -0.077000
     19 F7          29.4840    24.8090    35.6900 f          1 7J2      -0.181000
     20 C8          29.6800    27.4760    34.8250 c3         1 7J2      -0.042800
     21 C9          28.4560    25.7270    30.2700 cp         1 7J2      -0.138000
     22 C10         24.2500    23.5940    27.8580 c5         1 7J2       0.096700
     23 O12         22.0230    23.0280    28.4210 os         1 7J2      -0.412100
     24 N14         23.3020    24.7190    27.7560 n          1 7J2      -0.432300
     25 N19         24.5950    28.3690    26.3210 nb         1 7J2      -0.250000
     26 N21         24.9270    26.0620    26.8450 nb         1 7J2      -0.305000
     27 N27         26.6130    27.3450    25.9210 nu         1 7J2      -0.899100
     28 N29         28.5610    25.0280    27.9840 nb         1 7J2      -0.172000
     29 C31         27.8040    26.8720    29.8140 ca         1 7J2       0.118900
     30 N32         27.5440    27.0920    28.5260 nb         1 7J2      -0.172000
     31 H1          28.3890    23.3530    31.5920 ha         1 7J2       0.118000
     32 H2          28.8570    22.9690    33.9970 ha         1 7J2       0.136000
     33 H3          23.0930    21.9170    27.0520 h1         1 7J2       0.072700
     34 H4          23.5600    21.7040    28.7560 h1         1 7J2       0.072700
     35 H5          25.8090    24.6580    28.8160 hc         1 7J2       0.071700
     36 H6          25.3310    24.0800    31.1480 hc         1 7J2       0.038533
     37 H7          23.8850    24.7530    30.3970 hc         1 7J2       0.038533
     38 H8          24.0170    23.0080    30.6680 hc         1 7J2       0.038533
     39 H9          26.9660    22.6880    29.7970 hc         1 7J2       0.038533
     40 H10         25.7130    21.6220    29.1770 hc         1 7J2       0.038533
     41 H11         26.7540    22.5100    28.0540 hc         1 7J2       0.038533
     42 H12         21.8040    27.0260    27.6400 ha         1 7J2       0.166000
     43 H13         22.7340    29.1450    26.7260 h4         1 7J2       0.025100
     44 H14         27.2810    25.3860    25.8050 h1         1 7J2       0.094700
     45 H15         29.6800    25.9840    25.6040 hc         1 7J2       0.052700
     46 H16         28.7110    26.7990    24.3620 hc         1 7J2       0.052700
     47 H17         29.2790    27.7000    25.7820 hc         1 7J2       0.052700
     48 H18         29.3720    23.9210    29.5190 h4         1 7J2       0.028600
     49 H19         29.1340    27.5430    32.1560 ha         1 7J2       0.119000
     50 H20         28.9630    27.5640    35.6430 hc         1 7J2       0.051033
     51 H21         30.6630    27.3170    35.2750 hc         1 7J2       0.051033
     52 H22         29.6990    28.4190    34.2790 hc         1 7J2       0.051033
     53 H23         24.8080    23.5170    26.9280 h1         1 7J2       0.093700
     54 H24         26.9260    28.2900    25.7560 hn         1 7J2       0.503000
     55 H25         27.4660    27.6290    30.5130 h4         1 7J2       0.028600
     56 O15         21.0610    25.0440    28.3340 o          1 7J2      -0.512000
     57 C16         25.2460    23.7470    29.0210 c3         1 7J2      -0.074700
@<TRIPOS>BOND
     1     1     2 ar  
     2     1    18 ar  
     3     1    21 1   
     4     2     3 ar  
     5     2    31 1   
     6     3    16 ar  
     7     3    32 1   
     8     4    22 1   
     9     4    23 1   
    10     4    33 1   
    11     4    34 1   
    12     5    23 1   
    13     5    24 1   
    14     5    56 2   
    15     6    36 1   
    16     6    37 1   
    17     6    38 1   
    18     6    57 1   
    19     7    39 1   
    20     7    40 1   
    21     7    41 1   
    22     7    57 1   
    23     8    25 ar  
    24     8    26 ar  
    25     8    27 1   
    26     9    10 ar  
    27     9    24 1   
    28     9    26 ar  
    29    10    11 ar  
    30    10    42 1   
    31    11    25 ar  
    32    11    43 1   
    33    12    13 1   
    34    12    28 ar  
    35    12    30 ar  
    36    13    14 1   
    37    13    27 1   
    38    13    44 1   
    39    14    45 1   
    40    14    46 1   
    41    14    47 1   
    42    15    21 ar  
    43    15    28 ar  
    44    15    48 1   
    45    16    17 ar  
    46    16    19 1   
    47    17    18 ar  
    48    17    20 1   
    49    18    49 1   
    50    20    50 1   
    51    20    51 1   
    52    20    52 1   
    53    21    29 ar  
    54    22    24 1   
    55    22    53 1   
    56    22    57 1   
    57    27    54 1   
    58    29    30 ar  
    59    29    55 1   
    60    35    57 1   
@<TRIPOS>SUBSTRUCTURE
     1 7J2         1 TEMP              0 ****  ****    0 ROOT
