@<TRIPOS>MOLECULE
7J2
   57    60     1     0     0
SMALL
No Charge or Current Charge


@<TRIPOS>ATOM
      1 C1          28.9120    25.4040    31.6920 cp         1 7J2      -0.044000
      2 C2          28.9800    24.0750    32.1840 ca         1 7J2      -0.080000
      3 C3          29.2750    23.8150    33.5330 ca         1 7J2      -0.142000
      4 C11         23.2580    22.3440    27.9960 c5         1 7J2       0.141600
      5 C13         21.9090    24.1890    27.9230 c          1 7J2       0.707100
      6 C17         24.2090    24.0870    30.5060 c3         1 7J2      -0.091600
      7 C18         26.0830    22.7000    29.4840 c3         1 7J2      -0.091600
      8 C20         25.2580    27.2580    26.2820 ca         1 7J2       0.406900
      9 C22         23.5840    25.9350    27.1480 ca         1 7J2       0.306900
     10 C23         22.6910    27.0120    26.9660 ca         1 7J2      -0.293000
     11 C24         23.1920    28.2050    26.4250 ca         1 7J2       0.160900
     12 C25         28.0120    26.1980    27.6380 ca         1 7J2       0.106300
     13 C26         27.7030    26.4630    26.1500 c3         1 7J2       0.209200
     14 C28         28.9500    26.9850    25.4090 c3         1 7J2      -0.100100
     15 C30         28.8420    24.7460    29.2200 ca         1 7J2       0.118900
     16 C4          29.5110    24.8760    34.4170 ca         1 7J2       0.169000
     17 C5          29.4570    26.2070    33.9630 ca         1 7J2      -0.104300
     18 C6          29.1590    26.4600    32.6090 ca         1 7J2      -0.077000
     19 F7          29.7950    24.6070    35.7120 f          1 7J2      -0.181000
     20 C8          29.7200    27.3640    34.9220 c3         1 7J2      -0.042800
     21 C9          28.5920    25.6860    30.2530 cp         1 7J2      -0.138000
     22 C10         24.2080    23.5760    27.9390 c5         1 7J2       0.096700
     23 O12         21.9530    22.8810    28.2930 os         1 7J2      -0.412100
     24 N14         23.2110    24.6400    27.6720 n          1 7J2      -0.432300
     25 N19         24.4840    28.3330    26.0810 nb         1 7J2      -0.250000
     26 N21         24.8760    26.0730    26.7860 nb         1 7J2      -0.305000
     27 N27         26.5890    27.4140    25.9290 nu         1 7J2      -0.899100
     28 N29         28.5520    24.9940    27.9270 nb         1 7J2      -0.172000
     29 C31         28.0210    26.9130    29.8280 ca         1 7J2       0.118900
     30 N32         27.7390    27.1730    28.5360 nb         1 7J2      -0.172000
     31 H1          28.7940    23.2330    31.5230 ha         1 7J2       0.118000
     32 H2          29.3200    22.7910    33.8940 ha         1 7J2       0.136000
     33 H3          23.2110    21.8510    27.0160 h1         1 7J2       0.072700
     34 H4          23.5380    21.5940    28.7460 h1         1 7J2       0.072700
     35 H5          25.6370    24.7360    29.0660 hc         1 7J2       0.071700
     36 H6          24.8620    24.3030    31.3610 hc         1 7J2       0.038533
     37 H7          23.5470    24.9500    30.3690 hc         1 7J2       0.038533
     38 H8          23.5930    23.2160    30.7610 hc         1 7J2       0.038533
     39 H9          26.7320    22.9590    30.3290 hc         1 7J2       0.038533
     40 H10         25.5930    21.7490    29.7200 hc         1 7J2       0.038533
     41 H11         26.7180    22.5510    28.6030 hc         1 7J2       0.038533
     42 H12         21.6440    26.9680    27.2370 ha         1 7J2       0.166000
     43 H13         22.5510    29.0720    26.2680 h4         1 7J2       0.025100
     44 H14         27.4360    25.4990    25.6920 h1         1 7J2       0.094700
     45 H15         29.7760    26.2700    25.5020 hc         1 7J2       0.052700
     46 H16         28.7400    27.1210    24.3410 hc         1 7J2       0.052700
     47 H17         29.2800    27.9440    25.8250 hc         1 7J2       0.052700
     48 H18         29.2920    23.7780    29.4270 h4         1 7J2       0.028600
     49 H19         29.1340    27.4900    32.2630 ha         1 7J2       0.119000
     50 H20         29.0050    27.3540    35.7530 hc         1 7J2       0.051033
     51 H21         30.7290    27.2990    35.3470 hc         1 7J2       0.051033
     52 H22         29.6340    28.3370    34.4240 hc         1 7J2       0.051033
     53 H23         24.9020    23.4610    27.0940 h1         1 7J2       0.093700
     54 H24         26.8300    28.3470    25.5940 hn         1 7J2       0.503000
     55 H25         27.7720    27.7020    30.5340 h4         1 7J2       0.028600
     56 O15         20.8740    24.8290    27.8450 o          1 7J2      -0.512000
     57 C16         25.0510    23.8240    29.2320 c3         1 7J2      -0.074700
@<TRIPOS>BOND
     1     1     2 ar  
     2     1    18 ar  
     3     1    21 1   
     4     2     3 ar  
     5     2    31 1   
     6     3    16 ar  
     7     3    32 1   
     8     4    22 1   
     9     4    23 1   
    10     4    33 1   
    11     4    34 1   
    12     5    23 1   
    13     5    24 1   
    14     5    56 2   
    15     6    36 1   
    16     6    37 1   
    17     6    38 1   
    18     6    57 1   
    19     7    39 1   
    20     7    40 1   
    21     7    41 1   
    22     7    57 1   
    23     8    25 ar  
    24     8    26 ar  
    25     8    27 1   
    26     9    10 ar  
    27     9    24 1   
    28     9    26 ar  
    29    10    11 ar  
    30    10    42 1   
    31    11    25 ar  
    32    11    43 1   
    33    12    13 1   
    34    12    28 ar  
    35    12    30 ar  
    36    13    14 1   
    37    13    27 1   
    38    13    44 1   
    39    14    45 1   
    40    14    46 1   
    41    14    47 1   
    42    15    21 ar  
    43    15    28 ar  
    44    15    48 1   
    45    16    17 ar  
    46    16    19 1   
    47    17    18 ar  
    48    17    20 1   
    49    18    49 1   
    50    20    50 1   
    51    20    51 1   
    52    20    52 1   
    53    21    29 ar  
    54    22    24 1   
    55    22    53 1   
    56    22    57 1   
    57    27    54 1   
    58    29    30 ar  
    59    29    55 1   
    60    35    57 1   
@<TRIPOS>SUBSTRUCTURE
     1 7J2         1 TEMP              0 ****  ****    0 ROOT
