@<TRIPOS>MOLECULE
7J3
   29    29     1     0     0
SMALL
bcc


@<TRIPOS>ATOM
      1 C22          2.1080    -0.5490     0.1250 c3         1 7J3       0.018500
      2 C23          0.8530     0.2180    -0.2770 c3         1 7J3      -0.123400
      3 C24         -0.3480    -0.6750    -0.5340 c          1 7J3       0.683100
      4 C26         -1.8330     1.3340    -0.4300 c6         1 7J3       0.102500
      5 C27         -2.7620     1.5750     0.7530 c6         1 7J3      -0.096400
      6 C28         -4.0490     0.7720     0.5980 c6         1 7J3      -0.070400
      7 C29         -3.7400    -0.7010     0.3500 c6         1 7J3      -0.096400
      8 C30         -2.7680    -0.8700    -0.8120 c6         1 7J3       0.102500
      9 O01          4.0530     0.5830     0.9560 o          1 7J3      -0.839800
     10 C02          3.3520     0.3610    -0.0500 c          1 7J3       0.900600
     11 N25         -1.5640    -0.0850    -0.5910 n          1 7J3      -0.495800
     12 O31         -0.2120    -1.8780    -0.7250 o          1 7J3      -0.612100
     13 N32          1.9220    -1.1100     1.4530 n8         1 7J3      -0.878800
     14 H4           2.2310    -1.3830    -0.5740 h1         1 7J3       0.062700
     15 H6           0.6340     0.9550     0.5010 hc         1 7J3       0.058700
     16 H7           1.0480     0.7900    -1.1880 hc         1 7J3       0.058700
     17 H10         -2.2500     1.2870     1.6760 hc         1 7J3       0.042950
     18 H11         -2.9810     2.6430     0.8260 hc         1 7J3       0.042950
     19 H12         -4.6790     0.8850     1.4830 hc         1 7J3       0.027700
     20 H13         -4.6220     1.1700    -0.2460 hc         1 7J3       0.027700
     21 H14         -3.3020    -1.1450     1.2480 hc         1 7J3       0.042950
     22 H15         -4.6560    -1.2560     0.1330 hc         1 7J3       0.042950
     23 H23         -2.4970    -1.9130    -0.9450 h1         1 7J3       0.046950
     24 H24         -3.2400    -0.5340    -1.7430 h1         1 7J3       0.046950
     25 H33          2.6970    -1.7300     1.6550 hn         1 7J3       0.323800
     26 OXT          3.5520     0.7950    -1.2040 o          1 7J3      -0.839800
     27 H2           2.0260    -0.3590     2.1260 hn         1 7J3       0.323800
     28 H8          -2.3110     1.6990    -1.3460 h1         1 7J3       0.046950
     29 H9          -0.9110     1.8970    -0.3200 h1         1 7J3       0.046950
@<TRIPOS>BOND
     1     1     2 1   
     2     1    10 1   
     3     1    13 1   
     4     1    14 1   
     5     2     3 1   
     6     2    15 1   
     7     2    16 1   
     8     3    11 1   
     9     3    12 2   
    10     4     5 1   
    11     4    11 1   
    12     4    28 1   
    13     4    29 1   
    14     5     6 1   
    15     5    17 1   
    16     5    18 1   
    17     6     7 1   
    18     6    19 1   
    19     6    20 1   
    20     7     8 1   
    21     7    21 1   
    22     7    22 1   
    23     8    11 1   
    24     8    23 1   
    25     8    24 1   
    26     9    10 1   
    27    10    26 1   
    28    13    25 1   
    29    13    27 1   
@<TRIPOS>SUBSTRUCTURE
     1 7J3         1 TEMP              0 ****  ****    0 ROOT
