@<TRIPOS>MOLECULE
7J3
   29    29     1     0     0
SMALL
No Charge or Current Charge


@<TRIPOS>ATOM
      1 C22          2.3300    -0.5550    -0.0380 c3         1 7J3       0.018500
      2 C23          0.9520     0.1600     0.0060 c3         1 7J3      -0.123400
      3 C24         -0.2820    -0.6740    -0.4080 c          1 7J3       0.616100
      4 C26         -1.8260     1.2870    -0.0020 c6         1 7J3       0.102500
      5 C27         -3.1450     1.6840     0.7030 c6         1 7J3      -0.096400
      6 C28         -4.3450     0.9020     0.1450 c6         1 7J3      -0.070400
      7 C29         -4.0740    -0.6040     0.2950 c6         1 7J3      -0.096400
      8 C30         -2.7660    -1.0150    -0.4200 c6         1 7J3       0.102500
      9 O01          3.8360     1.2500     0.5320 o          1 7J3      -0.734500
     10 C02          3.4830     0.4830    -0.3550 c          1 7J3       0.690000
     11 N25         -1.5700    -0.1880    -0.0670 n          1 7J3      -0.428800
     12 O31         -0.1620    -1.7450    -0.9950 o          1 7J3      -0.612100
     13 N32          2.5180    -1.3870     1.2060 n8         1 7J3      -0.989200
     14 H4           2.3240    -1.2440    -0.8950 h1         1 7J3       0.062700
     15 H6           0.7690     0.6280     0.9790 hc         1 7J3       0.058700
     16 H7           0.9580     1.0330    -0.6570 hc         1 7J3       0.058700
     17 H10         -3.0510     1.4940     1.7810 hc         1 7J3       0.042950
     18 H11         -3.3140     2.7640     0.5910 hc         1 7J3       0.042950
     19 H12         -5.2610     1.1780     0.6840 hc         1 7J3       0.027700
     20 H13         -4.5050     1.1560    -0.9130 hc         1 7J3       0.027700
     21 H14         -4.0030    -0.8620     1.3600 hc         1 7J3       0.042950
     22 H15         -4.9150    -1.1810    -0.1110 hc         1 7J3       0.042950
     23 H23         -2.5630    -2.0700    -0.1860 h1         1 7J3       0.046950
     24 H24         -2.9210    -0.9500    -1.5070 h1         1 7J3       0.046950
     25 H33          3.4000    -1.9090     1.1300 hn         1 7J3       0.379000
     26 OXT          4.0450     0.4130    -1.4400 o          1 7J3      -0.734500
     27 H2           2.6920    -0.7520     1.9950 hn         1 7J3       0.379000
     28 H8          -1.8460     1.6760    -1.0310 h1         1 7J3       0.046950
     29 H9          -1.0070     1.8020     0.5170 h1         1 7J3       0.046950
@<TRIPOS>BOND
     1     1     2 1   
     2     1    10 1   
     3     1    13 1   
     4     1    14 1   
     5     2     3 1   
     6     2    15 1   
     7     2    16 1   
     8     3    11 1   
     9     3    12 2   
    10     4     5 1   
    11     4    11 1   
    12     4    28 1   
    13     4    29 1   
    14     5     6 1   
    15     5    17 1   
    16     5    18 1   
    17     6     7 1   
    18     6    19 1   
    19     6    20 1   
    20     7     8 1   
    21     7    21 1   
    22     7    22 1   
    23     8    11 1   
    24     8    23 1   
    25     8    24 1   
    26     9    10 1   
    27    10    26 1   
    28    13    25 1   
    29    13    27 1   
@<TRIPOS>SUBSTRUCTURE
     1 7J3         1 TEMP              0 ****  ****    0 ROOT
