@<TRIPOS>MOLECULE
7J4
   29    28     1     0     0
SMALL
abcg2


@<TRIPOS>ATOM
      1 O01         -3.8690    -0.7100     1.2260 o          1 7J4      -0.725500
      2 C02         -3.4940    -0.0520     0.2380 c          1 7J4       0.724000
      3 C22         -2.0600     0.5240     0.2660 c3         1 7J4       0.031500
      4 C23         -1.2210    -0.2550    -0.7630 c3         1 7J4      -0.182400
      5 C24          0.1660     0.3220    -0.9130 c          1 7J4       0.591100
      6 N25          1.1490    -0.5920    -0.7740 ns         1 7J4      -0.391400
      7 O26          2.4280    -0.2450    -1.0780 os         1 7J4      -0.246100
      8 C27          3.3050    -0.2260     0.0760 c3         1 7J4       0.163000
      9 C28          2.7910     0.7320     1.1410 c3         1 7J4      -0.098433
     10 C29          3.4570    -1.6370     0.6320 c3         1 7J4      -0.098433
     11 C30          4.6240     0.2690    -0.4970 c3         1 7J4      -0.098433
     12 O31          0.3750     1.5060    -1.1110 o          1 7J4      -0.587100
     13 N32         -1.5130     0.5250     1.6090 n8         1 7J4      -0.985200
     14 H18         -2.1140     1.5630    -0.0740 h1         1 7J4       0.066700
     15 H19         -1.1820    -1.3110    -0.4800 hc         1 7J4       0.065200
     16 H20         -1.7060    -0.2060    -1.7410 hc         1 7J4       0.065200
     17 H21          0.9500    -1.5810    -0.8260 hn         1 7J4       0.318500
     18 H22          1.8400     0.4020     1.5620 hc         1 7J4       0.040256
     19 H23          3.5070     0.7840     1.9620 hc         1 7J4       0.040256
     20 H24          2.6630     1.7370     0.7410 hc         1 7J4       0.040256
     21 H25          3.8250    -2.3230    -0.1330 hc         1 7J4       0.040256
     22 H26          4.1730    -1.6410     1.4550 hc         1 7J4       0.040256
     23 H27          2.5150    -2.0260     1.0220 hc         1 7J4       0.040256
     24 H28          4.5290     1.2800    -0.8960 hc         1 7J4       0.040256
     25 H29          5.3830     0.2890     0.2850 hc         1 7J4       0.040256
     26 H30          4.9850    -0.3850    -1.2920 hc         1 7J4       0.040256
     27 H31         -1.5200    -0.4160     1.9810 hn         1 7J4       0.375500
     28 OXT         -4.1430     0.1700    -0.8040 o          1 7J4      -0.725500
     29 H2          -0.5500     0.8380     1.6060 hn         1 7J4       0.375500
@<TRIPOS>BOND
     1     1     2 1   
     2     2     3 1   
     3     2    28 1   
     4     3     4 1   
     5     3    13 1   
     6     3    14 1   
     7     4     5 1   
     8     4    15 1   
     9     4    16 1   
    10     5     6 1   
    11     5    12 2   
    12     6     7 1   
    13     6    17 1   
    14     7     8 1   
    15     8     9 1   
    16     8    10 1   
    17     8    11 1   
    18     9    18 1   
    19     9    19 1   
    20     9    20 1   
    21    10    21 1   
    22    10    22 1   
    23    10    23 1   
    24    11    24 1   
    25    11    25 1   
    26    11    26 1   
    27    13    27 1   
    28    13    29 1   
@<TRIPOS>SUBSTRUCTURE
     1 7J4         1 TEMP              0 ****  ****    0 ROOT
