@<TRIPOS>MOLECULE
7J4
   29    28     1     0     0
SMALL
No Charge or Current Charge


@<TRIPOS>ATOM
      1 O01         -4.1640    -0.7910     0.1510 o          1 7J4      -0.725500
      2 C02         -3.6100     0.3020     0.1890 c          1 7J4       0.724000
      3 C22         -2.0350     0.3460     0.3820 c3         1 7J4       0.031500
      4 C23         -1.3030    -0.3210    -0.8130 c3         1 7J4      -0.182400
      5 C24          0.1190     0.2140    -1.0020 c          1 7J4       0.591100
      6 N25          1.1260    -0.6860    -0.6940 ns         1 7J4      -0.391400
      7 O26          2.4860    -0.3440    -1.0550 os         1 7J4      -0.246100
      8 C27          3.3730    -0.1330     0.0740 c3         1 7J4       0.163000
      9 C28          2.8520     1.0580     0.9190 c3         1 7J4      -0.098433
     10 C29          3.4540    -1.4440     0.8990 c3         1 7J4      -0.098433
     11 C30          4.7480     0.2030    -0.5450 c3         1 7J4      -0.098433
     12 O31          0.3400     1.3430    -1.4230 o          1 7J4      -0.587100
     13 N32         -1.5070    -0.2150     1.6780 n8         1 7J4      -0.985200
     14 H18         -1.7750     1.4140     0.3640 h1         1 7J4       0.066700
     15 H19         -1.2960    -1.4090    -0.6750 hc         1 7J4       0.065200
     16 H20         -1.8630    -0.0810    -1.7250 hc         1 7J4       0.065200
     17 H21          0.9400    -1.6630    -0.4880 hn         1 7J4       0.318500
     18 H22          1.9030     0.8180     1.4130 hc         1 7J4       0.040256
     19 H23          3.5750     1.3170     1.7020 hc         1 7J4       0.040256
     20 H24          2.7010     1.9450     0.2920 hc         1 7J4       0.040256
     21 H25          3.7070    -2.2950     0.2550 hc         1 7J4       0.040256
     22 H26          4.2280    -1.3630     1.6720 hc         1 7J4       0.040256
     23 H27          2.5060    -1.6620     1.4050 hc         1 7J4       0.040256
     24 H28          4.6860     1.1060    -1.1650 hc         1 7J4       0.040256
     25 H29          5.4950     0.3790     0.2380 hc         1 7J4       0.040256
     26 H30          5.1040    -0.6210    -1.1760 hc         1 7J4       0.040256
     27 H31         -1.7950    -1.1980     1.7600 hn         1 7J4       0.375500
     28 OXT         -4.2180     1.3630     0.1320 o          1 7J4      -0.725500
     29 H2          -0.4820    -0.2490     1.6570 hn         1 7J4       0.375500
@<TRIPOS>BOND
     1     1     2 1   
     2     2     3 1   
     3     2    28 1   
     4     3     4 1   
     5     3    13 1   
     6     3    14 1   
     7     4     5 1   
     8     4    15 1   
     9     4    16 1   
    10     5     6 1   
    11     5    12 2   
    12     6     7 1   
    13     6    17 1   
    14     7     8 1   
    15     8     9 1   
    16     8    10 1   
    17     8    11 1   
    18     9    18 1   
    19     9    19 1   
    20     9    20 1   
    21    10    21 1   
    22    10    22 1   
    23    10    23 1   
    24    11    24 1   
    25    11    25 1   
    26    11    26 1   
    27    13    27 1   
    28    13    29 1   
@<TRIPOS>SUBSTRUCTURE
     1 7J4         1 TEMP              0 ****  ****    0 ROOT
