@<TRIPOS>MOLECULE
7J5
   64    66     1     0     0
SMALL
No Charge or Current Charge


@<TRIPOS>ATOM
      1 CAA         13.5650    -0.5620    -1.0830 c3         1 7J5      -0.098100
      2 CAB          0.2310    -0.5360    -2.0190 c3         1 7J5      -0.093100
      3 CAF          9.2710    -0.3610     0.7610 ce         1 7J5       0.427800
      4 CAG         -9.3320     0.9700     0.3890 ca         1 7J5       0.359900
      5 CAH         -8.0730     1.5720     0.2540 ca         1 7J5      -0.221000
      6 CAI          7.0770    -0.2750     1.9710 ca         1 7J5      -0.043000
      7 CAJ          7.0530    -0.1130    -0.4560 ca         1 7J5      -0.043000
      8 CAK          5.6760    -0.1710     1.9880 ca         1 7J5      -0.183000
      9 CAL          5.6510    -0.0080    -0.4350 ca         1 7J5      -0.183000
     10 CAM         -7.0900    -0.6080     0.4030 ca         1 7J5      -0.136000
     11 CAN         12.0620    -0.4290    -1.3800 c3         1 7J5       0.169600
     12 CAO          2.7550     0.2000    -0.2930 c3         1 7J5       0.166600
     13 CAP          1.2880     0.2840     0.1830 c3         1 7J5      -0.081400
     14 CAQ         -1.1520     0.8280    -0.3270 c3         1 7J5      -0.108400
     15 CAR         -2.2200     1.3190    -1.3290 c3         1 7J5       0.117000
     16 CAS         -3.7830     2.9280     0.0120 c5         1 7J5       0.081000
     17 CAT         -5.2910     2.7710     0.4240 c5         1 7J5       0.084000
     18 CAY         -8.5540    -2.6780     0.6790 c          1 7J5       0.508600
     19 CAZ         -4.5670     0.7760    -0.6480 c          1 7J5       0.611000
     20 NAC         -9.8190    -3.1600     0.7970 nt         1 7J5      -0.589000
     21 NAU          9.9730    -0.3410    -0.3320 n2         1 7J5      -0.338700
     22 NAV         -9.4960    -0.3620     0.5360 nb         1 7J5      -0.697000
     23 OAD         -7.6200    -3.4690     0.6920 o          1 7J5      -0.602100
     24 OAE         -4.5660    -0.3380    -1.1530 o          1 7J5      -0.543000
     25 OAW         11.3630    -0.4600    -0.1220 os         1 7J5      -0.321000
     26 OAX          3.5820     0.0610     0.8740 os         1 7J5      -0.349100
     27 CBA          7.7790    -0.2470     0.7490 ca         1 7J5      -0.181900
     28 CBB          4.9560    -0.0370     0.7920 ca         1 7J5       0.163100
     29 CBC         -6.9080     0.7870     0.3170 ca         1 7J5       0.038000
     30 CBD         -8.3840    -1.1550     0.5370 ca         1 7J5       0.304500
     31 CBE          0.2550     0.5790    -0.9400 c3         1 7J5      -0.050700
     32 NBF         -3.4960     1.6530    -0.6690 n          1 7J5      -0.410800
     33 NBG         -5.6270     1.3830     0.0230 n          1 7J5      -0.235400
     34 HAA1        13.9080     0.2670    -0.4520 hc         1 7J5       0.043700
     35 HAA2        13.7750    -1.5070    -0.5690 hc         1 7J5       0.043700
     36 HAA3        14.1380    -0.5430    -2.0170 hc         1 7J5       0.043700
     37 HAN1        11.8760     0.5150    -1.9090 h1         1 7J5       0.036700
     38 HAN2        11.7430    -1.2590    -2.0250 h1         1 7J5       0.036700
     39 HAB1        -0.0790    -1.4940    -1.5840 hc         1 7J5       0.038700
     40 HAB2        -0.4600    -0.2890    -2.8320 hc         1 7J5       0.038700
     41 HAB3         1.2180    -0.6700    -2.4750 hc         1 7J5       0.038700
     42 HBE          0.5660     1.5090    -1.4340 hc         1 7J5       0.042700
     43 HAF          9.7470    -0.4610     1.7400 h4         1 7J5       0.002800
     44 HAG        -10.2400     1.5710     0.3630 h4         1 7J5       0.018100
     45 HAH         -8.0230     2.6460     0.1040 ha         1 7J5       0.121000
     46 HAI          7.6170    -0.3780     2.9110 ha         1 7J5       0.121500
     47 HAK          5.1440    -0.1930     2.9360 ha         1 7J5       0.123500
     48 HAJ          7.5690    -0.0880    -1.4140 ha         1 7J5       0.121500
     49 HAL          5.1240     0.0940    -1.3790 ha         1 7J5       0.123500
     50 HAM         -6.2380    -1.2800     0.4050 ha         1 7J5       0.180000
     51 HAO1         2.8850    -0.6630    -0.9580 h1         1 7J5       0.036700
     52 HAO2         3.0140     1.1150    -0.8430 h1         1 7J5       0.036700
     53 HAP1         1.0230    -0.6540     0.6850 hc         1 7J5       0.057200
     54 HAP2         1.2240     1.0760     0.9400 hc         1 7J5       0.057200
     55 HAQ1        -1.0620     1.5800     0.4670 hc         1 7J5       0.050700
     56 HAQ2        -1.5100    -0.0910     0.1530 hc         1 7J5       0.050700
     57 HAR1        -1.8480     2.2170    -1.8390 h1         1 7J5       0.063700
     58 HAR2        -2.3950     0.5550    -2.0970 h1         1 7J5       0.063700
     59 HAS1        -3.6340     3.7850    -0.6580 h1         1 7J5       0.055200
     60 HAS2        -3.1400     3.0570     0.8920 h1         1 7J5       0.055200
     61 HAT1        -5.4320     2.9200     1.5020 h1         1 7J5       0.059700
     62 HAT2        -5.9150     3.4970    -0.1110 h1         1 7J5       0.059700
     63 HAC1        -9.9730    -4.1530     0.8920 hn         1 7J5       0.326500
     64 HAC2       -10.5940    -2.5120     0.7870 hn         1 7J5       0.326500
@<TRIPOS>BOND
     1     1    11 1   
     2     1    34 1   
     3     1    35 1   
     4     1    36 1   
     5     2    31 1   
     6     2    39 1   
     7     2    40 1   
     8     2    41 1   
     9     3    21 2   
    10     3    27 1   
    11     3    43 1   
    12     4     5 ar  
    13     4    22 ar  
    14     4    44 1   
    15     5    29 ar  
    16     5    45 1   
    17     6     8 ar  
    18     6    27 ar  
    19     6    46 1   
    20     7     9 ar  
    21     7    27 ar  
    22     7    48 1   
    23     8    28 ar  
    24     8    47 1   
    25     9    28 ar  
    26     9    49 1   
    27    10    29 ar  
    28    10    30 ar  
    29    10    50 1   
    30    11    25 1   
    31    11    37 1   
    32    11    38 1   
    33    12    13 1   
    34    12    26 1   
    35    12    51 1   
    36    12    52 1   
    37    13    31 1   
    38    13    53 1   
    39    13    54 1   
    40    14    15 1   
    41    14    31 1   
    42    14    55 1   
    43    14    56 1   
    44    15    32 1   
    45    15    57 1   
    46    15    58 1   
    47    16    17 1   
    48    16    32 1   
    49    16    59 1   
    50    16    60 1   
    51    17    33 1   
    52    17    61 1   
    53    17    62 1   
    54    18    20 1   
    55    18    23 2   
    56    18    30 1   
    57    19    24 2   
    58    19    32 1   
    59    19    33 1   
    60    20    63 1   
    61    20    64 1   
    62    21    25 1   
    63    22    30 ar  
    64    26    28 1   
    65    29    33 1   
    66    31    42 1   
@<TRIPOS>SUBSTRUCTURE
     1 7J5         1 TEMP              0 ****  ****    0 ROOT
