@<TRIPOS>MOLECULE
7J5
   64    66     1     0     0
SMALL
abcg2


@<TRIPOS>ATOM
      1 CAA         13.2450    -0.5160    -0.7470 c3         1 7J5      -0.098100
      2 CAB          0.2860    -0.4240    -2.2730 c3         1 7J5      -0.093100
      3 CAF          8.9630    -0.5050     0.8280 ce         1 7J5       0.427800
      4 CAG         -8.8140     0.9370     1.1850 ca         1 7J5       0.359900
      5 CAH         -7.6330     1.5240     0.7680 ca         1 7J5      -0.221000
      6 CAI          6.7560    -0.5850     1.9110 ca         1 7J5      -0.043000
      7 CAJ          6.8430     0.0190    -0.4030 ca         1 7J5      -0.043000
      8 CAK          5.3800    -0.4600     1.9000 ca         1 7J5      -0.183000
      9 CAL          5.4650     0.1470    -0.4310 ca         1 7J5      -0.183000
     10 CAM         -6.8120    -0.6720     0.3240 ca         1 7J5      -0.136000
     11 CAN         11.8010    -0.2260    -1.0830 c3         1 7J5       0.169600
     12 CAO          2.6390     0.2910    -0.3780 c3         1 7J5       0.166600
     13 CAP          1.1710     0.2830    -0.0040 c3         1 7J5      -0.081400
     14 CAQ         -1.1780     0.8240    -0.6280 c3         1 7J5      -0.108400
     15 CAR         -2.1830     1.3020    -1.6730 c3         1 7J5       0.117000
     16 CAS         -3.6830     2.8350    -0.3370 c5         1 7J5       0.081000
     17 CAT         -5.1530     2.7160     0.0500 c5         1 7J5       0.084000
     18 CAY         -8.2730    -2.6310     0.7740 c          1 7J5       0.508600
     19 CAZ         -4.4050     0.6880    -0.8450 c          1 7J5       0.611000
     20 NAC         -9.4790    -2.9910     1.2170 nt         1 7J5      -0.589000
     21 NAU          9.6990    -0.2910    -0.1850 n2         1 7J5      -0.338700
     22 NAV         -9.0300    -0.3690     1.1870 nb         1 7J5      -0.697000
     23 OAD         -7.4120    -3.4150     0.4010 o          1 7J5      -0.602100
     24 OAE         -4.3890    -0.4660    -1.2280 o          1 7J5      -0.543000
     25 OAW         11.0200    -0.5000     0.0740 os         1 7J5      -0.321000
     26 OAX          3.3830     0.0050     0.8000 os         1 7J5      -0.349100
     27 CBA          7.5140    -0.3500     0.7620 ca         1 7J5      -0.181900
     28 CBB          4.7190    -0.0930     0.7260 ca         1 7J5       0.163100
     29 CBC         -6.5870     0.7120     0.3160 ca         1 7J5       0.038000
     30 CBD         -8.0340    -1.1430     0.7630 ca         1 7J5       0.304500
     31 CBE          0.2400     0.6300    -1.1690 c3         1 7J5      -0.050700
     32 NBF         -3.4710     1.6300    -1.1060 n          1 7J5      -0.410800
     33 NBG         -5.3990     1.2860    -0.0760 n          1 7J5      -0.235400
     34 HAA1        13.6000     0.1090     0.0730 hc         1 7J5       0.043700
     35 HAA2        13.3930    -1.5610    -0.4760 hc         1 7J5       0.043700
     36 HAA3        13.8640    -0.3040    -1.6180 hc         1 7J5       0.043700
     37 HAN1        11.6770     0.8200    -1.3800 h1         1 7J5       0.036700
     38 HAN2        11.4660    -0.8500    -1.9170 h1         1 7J5       0.036700
     39 HAB1        -0.0690    -1.3890    -1.9030 hc         1 7J5       0.038700
     40 HAB2        -0.3350    -0.1470    -3.1250 hc         1 7J5       0.038700
     41 HAB3         1.2950    -0.5690    -2.6590 hc         1 7J5       0.038700
     42 HBE          0.5680     1.5880    -1.5920 hc         1 7J5       0.042700
     43 HAF          9.3860    -0.8180     1.7840 h4         1 7J5       0.002800
     44 HAG         -9.6260     1.5660     1.5320 h4         1 7J5       0.018100
     45 HAH         -7.5510     2.6000     0.7970 ha         1 7J5       0.121000
     46 HAI          7.2490    -0.8760     2.8300 ha         1 7J5       0.121500
     47 HAK          4.8070    -0.6490     2.7990 ha         1 7J5       0.123500
     48 HAJ          7.4030     0.2110    -1.3100 ha         1 7J5       0.121500
     49 HAL          4.9890     0.4380    -1.3570 ha         1 7J5       0.123500
     50 HAM         -6.0580    -1.3710     0.0060 ha         1 7J5       0.180000
     51 HAO1         2.8590    -0.4580    -1.1460 h1         1 7J5       0.036700
     52 HAO2         2.9230     1.2710    -0.7790 h1         1 7J5       0.036700
     53 HAP1         0.9020    -0.7010     0.3950 hc         1 7J5       0.057200
     54 HAP2         1.0160     1.0080     0.8010 hc         1 7J5       0.057200
     55 HAQ1        -1.1430     1.5510     0.1890 hc         1 7J5       0.050700
     56 HAQ2        -1.5330    -0.1170    -0.1920 hc         1 7J5       0.050700
     57 HAR1        -1.8080     2.1950    -2.1780 h1         1 7J5       0.063700
     58 HAR2        -2.3360     0.5470    -2.4430 h1         1 7J5       0.063700
     59 HAS1        -3.4900     3.7260    -0.9330 h1         1 7J5       0.055200
     60 HAS2        -3.0370     2.8650     0.5440 h1         1 7J5       0.055200
     61 HAT1        -5.3350     3.0620     1.0660 h1         1 7J5       0.059700
     62 HAT2        -5.7970     3.2810    -0.6290 h1         1 7J5       0.059700
     63 HAC1        -9.7410    -3.9620     1.2630 hn         1 7J5       0.326500
     64 HAC2       -10.1410    -2.2920     1.5120 hn         1 7J5       0.326500
@<TRIPOS>BOND
     1     1    11 1   
     2     1    34 1   
     3     1    35 1   
     4     1    36 1   
     5     2    31 1   
     6     2    39 1   
     7     2    40 1   
     8     2    41 1   
     9     3    21 2   
    10     3    27 1   
    11     3    43 1   
    12     4     5 ar  
    13     4    22 ar  
    14     4    44 1   
    15     5    29 ar  
    16     5    45 1   
    17     6     8 ar  
    18     6    27 ar  
    19     6    46 1   
    20     7     9 ar  
    21     7    27 ar  
    22     7    48 1   
    23     8    28 ar  
    24     8    47 1   
    25     9    28 ar  
    26     9    49 1   
    27    10    29 ar  
    28    10    30 ar  
    29    10    50 1   
    30    11    25 1   
    31    11    37 1   
    32    11    38 1   
    33    12    13 1   
    34    12    26 1   
    35    12    51 1   
    36    12    52 1   
    37    13    31 1   
    38    13    53 1   
    39    13    54 1   
    40    14    15 1   
    41    14    31 1   
    42    14    55 1   
    43    14    56 1   
    44    15    32 1   
    45    15    57 1   
    46    15    58 1   
    47    16    17 1   
    48    16    32 1   
    49    16    59 1   
    50    16    60 1   
    51    17    33 1   
    52    17    61 1   
    53    17    62 1   
    54    18    20 1   
    55    18    23 2   
    56    18    30 1   
    57    19    24 2   
    58    19    32 1   
    59    19    33 1   
    60    20    63 1   
    61    20    64 1   
    62    21    25 1   
    63    22    30 ar  
    64    26    28 1   
    65    29    33 1   
    66    31    42 1   
@<TRIPOS>SUBSTRUCTURE
     1 7J5         1 TEMP              0 ****  ****    0 ROOT
