@<TRIPOS>MOLECULE
7J6
   74    78     1     0     0
SMALL
bcc


@<TRIPOS>ATOM
      1 C1          -3.2400     5.3240    -1.8110 c3         1 7J6      -0.133100
      2 C2          -3.0310     4.2490    -0.7680 c6         1 7J6       0.145500
      3 C3          -1.7940     3.4160    -1.0260 c6         1 7J6       0.137800
      4 N4          -1.6110     2.3710    -0.0330 n3         1 7J6      -0.681600
      5 C5          -0.3450     1.7010    -0.2390 c3         1 7J6       0.088800
      6 C6           0.7950     2.4740     0.3960 c          1 7J6       0.683100
      7 C10          4.3800     1.7830     0.8830 c5         1 7J6      -0.107300
      8 C11          5.6360     2.4710     0.3590 c3         1 7J6      -0.079100
      9 C12          4.6320     1.2090     2.2810 c3         1 7J6      -0.079100
     10 C13          3.9100     0.6830    -0.0290 ca         1 7J6       0.386600
     11 C15          4.1060    -1.2060    -1.2530 ca         1 7J6       0.389200
     12 C16          2.7550    -1.2180    -1.5590 ca         1 7J6      -0.162600
     13 C19          0.2090    -3.5520    -1.3490 ca         1 7J6      -0.125500
     14 C21          0.5360    -5.4590     0.0840 ca         1 7J6      -0.120000
     15 C22          1.9100    -5.3410    -0.0910 ca         1 7J6      -0.125500
     16 C23          2.4260    -4.3330    -0.8920 ca         1 7J6      -0.125500
     17 C24          1.9450    -0.1910    -1.0660 ca         1 7J6      -0.136000
     18 C25          2.5390     0.7910    -0.2900 ca         1 7J6      -0.052700
     19 C26         -2.7390     1.4630    -0.0010 c6         1 7J6       0.082500
     20 C27         -4.0320     2.2350     0.2450 c6         1 7J6       0.122800
     21 C35         -2.7570    -2.9270     1.7380 c6         1 7J6       0.108900
     22 C36         -3.2750    -1.5940     2.2460 c6         1 7J6       0.056000
     23 O7           0.6140     3.5390     0.9550 o          1 7J6      -0.567100
     24 N8           2.0490     1.9480     0.3210 n          1 7J6      -0.372000
     25 C9           3.1660     2.7280     0.8830 c5         1 7J6       0.095000
     26 N14          4.6770    -0.2740    -0.4900 nb         1 7J6      -0.616000
     27 C18          1.5830    -3.4260    -1.5300 ca         1 7J6      -0.082300
     28 C20         -0.3130    -4.5620    -0.5490 ca         1 7J6      -0.125500
     29 N28         -4.2020     3.3200    -0.7490 ny         1 7J6      -0.767000
     30 C29         -2.6230     0.5030     1.1980 c          1 7J6       0.662100
     31 N31         -3.3210    -0.6460     1.1420 n          1 7J6      -0.483800
     32 C32         -4.1250    -1.1480     0.0390 c6         1 7J6       0.056000
     33 C33         -3.5900    -2.5020    -0.4000 c6         1 7J6       0.108900
     34 O34         -3.5420    -3.4160     0.6700 os         1 7J6      -0.381600
     35 H38         -4.1450     5.8980    -1.6170 hc         1 7J6       0.078700
     36 H39         -2.3980     6.0130    -1.7860 hc         1 7J6       0.078700
     37 H37         -3.3020     4.9030    -2.8150 hc         1 7J6       0.078700
     38 H40         -2.9880     4.6830     0.2310 hx         1 7J6       0.129700
     39 H42         -1.8390     3.0100    -2.0510 h1         1 7J6       0.078700
     40 H41         -0.9390     4.0900    -0.9930 h1         1 7J6       0.078700
     41 H44         -0.3600     0.7020     0.1990 h1         1 7J6       0.072700
     42 H43         -0.1370     1.5620    -1.3100 h1         1 7J6       0.072700
     43 H47          5.9110     3.3090     1.0010 hc         1 7J6       0.048033
     44 H48          6.4750     1.7760     0.3360 hc         1 7J6       0.048033
     45 H49          5.4890     2.8560    -0.6510 hc         1 7J6       0.048033
     46 H52          3.7330     0.7470     2.6920 hc         1 7J6       0.048033
     47 H50          5.4180     0.4540     2.2520 hc         1 7J6       0.048033
     48 H51          4.9450     2.0010     2.9630 hc         1 7J6       0.048033
     49 H53          4.7600    -1.9800    -1.6430 h4         1 7J6       0.031100
     50 H58          0.1310    -6.2470     0.7040 ha         1 7J6       0.138000
     51 H59          2.5800    -6.0400     0.3930 ha         1 7J6       0.137500
     52 H60          3.4990    -4.2550    -1.0270 ha         1 7J6       0.122000
     53 H61          0.8980    -0.1970    -1.3240 ha         1 7J6       0.123000
     54 H62         -2.8230     0.9060    -0.9470 h1         1 7J6       0.047700
     55 H63         -4.9050     1.5890     0.1780 hx         1 7J6       0.114200
     56 H64         -4.0180     2.7070     1.2270 hx         1 7J6       0.114200
     57 H72         -1.7100    -2.8130     1.4270 h1         1 7J6       0.065700
     58 H71         -2.7930    -3.6710     2.5350 h1         1 7J6       0.065700
     59 H74         -4.2830    -1.7060     2.6580 h1         1 7J6       0.065450
     60 H73         -2.6290    -1.2190     3.0360 h1         1 7J6       0.065450
     61 H46          2.9160     3.0760     1.8840 h1         1 7J6       0.070700
     62 H45          3.3410     3.6060     0.2570 h1         1 7J6       0.070700
     63 H57         -1.3840    -4.6540    -0.4210 ha         1 7J6       0.137500
     64 H66         -5.0580     3.8360    -0.5370 hn         1 7J6       0.442800
     65 H68         -5.1610    -1.2450     0.3770 h1         1 7J6       0.065450
     66 H67         -4.1280    -0.4750    -0.8130 h1         1 7J6       0.065450
     67 H69         -4.2400    -2.9250    -1.1670 h1         1 7J6       0.065700
     68 H70         -2.5920    -2.3640    -0.8410 h1         1 7J6       0.065700
     69 H65         -4.3500     2.9240    -1.6810 hn         1 7J6       0.442800
     70 O30         -1.9580     0.8300     2.1670 o          1 7J6      -0.531100
     71 C17          2.1600    -2.3260    -2.3880 c3         1 7J6       0.016200
     72 H56         -0.4620    -2.8620    -1.8470 ha         1 7J6       0.122000
     73 H55          1.3840    -1.9180    -3.0390 hc         1 7J6       0.058200
     74 H54          2.9310    -2.7430    -3.0400 hc         1 7J6       0.058200
@<TRIPOS>BOND
     1     1     2 1   
     2     1    35 1   
     3     1    36 1   
     4     1    37 1   
     5     2     3 1   
     6     2    29 1   
     7     2    38 1   
     8     3     4 1   
     9     3    39 1   
    10     3    40 1   
    11     4     5 1   
    12     4    19 1   
    13     5     6 1   
    14     5    41 1   
    15     5    42 1   
    16     6    23 2   
    17     6    24 1   
    18     7     8 1   
    19     7     9 1   
    20     7    10 1   
    21     7    25 1   
    22     8    43 1   
    23     8    44 1   
    24     8    45 1   
    25     9    46 1   
    26     9    47 1   
    27     9    48 1   
    28    10    18 ar  
    29    10    26 ar  
    30    11    12 ar  
    31    11    26 ar  
    32    11    49 1   
    33    12    17 ar  
    34    12    71 1   
    35    13    27 ar  
    36    13    28 ar  
    37    13    72 1   
    38    14    15 ar  
    39    14    28 ar  
    40    14    50 1   
    41    15    16 ar  
    42    15    51 1   
    43    16    27 ar  
    44    16    52 1   
    45    17    18 ar  
    46    17    53 1   
    47    18    24 1   
    48    19    20 1   
    49    19    30 1   
    50    19    54 1   
    51    20    29 1   
    52    20    55 1   
    53    20    56 1   
    54    21    22 1   
    55    21    34 1   
    56    21    57 1   
    57    21    58 1   
    58    22    31 1   
    59    22    59 1   
    60    22    60 1   
    61    24    25 1   
    62    25    61 1   
    63    25    62 1   
    64    27    71 1   
    65    28    63 1   
    66    29    64 1   
    67    29    69 1   
    68    30    31 1   
    69    30    70 2   
    70    31    32 1   
    71    32    33 1   
    72    32    65 1   
    73    32    66 1   
    74    33    34 1   
    75    33    67 1   
    76    33    68 1   
    77    71    73 1   
    78    71    74 1   
@<TRIPOS>SUBSTRUCTURE
     1 7J6         1 TEMP              0 ****  ****    0 ROOT
