@<TRIPOS>MOLECULE
7J6
   74    78     1     0     0
SMALL
No Charge or Current Charge


@<TRIPOS>ATOM
      1 C1          -2.9430     5.3700    -1.3150 c3         1 7J6      -0.133100
      2 C2          -2.8590     4.1810    -0.3330 c6         1 7J6       0.117300
      3 C3          -1.5210     3.4030    -0.4140 c6         1 7J6       0.137800
      4 N4          -1.4930     2.1580     0.4320 n3         1 7J6      -0.681600
      5 C5          -0.1230     1.5220     0.3540 c3         1 7J6       0.088800
      6 C6           1.0900     2.2610     0.9910 c          1 7J6       0.616100
      7 C10          4.8230     2.1510     0.3840 c5         1 7J6      -0.107300
      8 C11          5.3650     3.1220    -0.6980 c3         1 7J6      -0.079100
      9 C12          5.9620     1.8490     1.3930 c3         1 7J6      -0.079100
     10 C13          4.2670     0.8780    -0.2530 ca         1 7J6       0.321300
     11 C15          4.3880    -1.1030    -1.4350 ca         1 7J6       0.323900
     12 C16          2.9930    -1.3050    -1.3340 ca         1 7J6      -0.097300
     13 C19          0.1930    -3.7590    -1.3630 ca         1 7J6      -0.107500
     14 C21         -0.0990    -4.8290     0.8040 ca         1 7J6      -0.102000
     15 C22          1.1830    -4.4010     1.1870 ca         1 7J6      -0.107500
     16 C23          1.9720    -3.6570     0.2920 ca         1 7J6      -0.107500
     17 C24          2.2150    -0.3500    -0.6500 ca         1 7J6      -0.118000
     18 C25          2.8920     0.7590    -0.0970 ca         1 7J6      -0.080000
     19 C26         -2.6340     1.1890     0.1040 c6         1 7J6       0.082500
     20 C27         -4.0390     1.8800     0.0900 c6         1 7J6       0.094600
     21 C35         -3.8170    -3.4540     1.1700 c6         1 7J6       0.132100
     22 C36         -4.2460    -2.0650     1.7060 c6         1 7J6       0.056000
     23 O7           0.9140     3.1830     1.7870 o          1 7J6      -0.567100
     24 N8           2.4160     1.9030     0.6090 n          1 7J6      -0.212400
     25 C9           3.5370     2.7440     1.1070 c5         1 7J6       0.095000
     26 N14          5.0240    -0.0310    -0.9080 nb         1 7J6      -0.616000
     27 C18          1.4810    -3.3270    -0.9870 ca         1 7J6      -0.082300
     28 C20         -0.5920    -4.5110    -0.4720 ca         1 7J6      -0.107500
     29 N28         -3.9850     3.2060    -0.7200 ny         1 7J6      -0.821000
     30 C29         -2.7850    -0.1200     0.9820 c          1 7J6       0.595100
     31 N31         -3.8930    -0.9770     0.7440 n          1 7J6      -0.416800
     32 C32         -4.4080    -1.2610    -0.6330 c6         1 7J6       0.056000
     33 C33         -3.9830    -2.6760    -1.1100 c6         1 7J6       0.132100
     34 O34         -4.3860    -3.6700    -0.1410 os         1 7J6      -0.428000
     35 H38         -3.9130     5.8750    -1.2470 hc         1 7J6       0.078700
     36 H39         -2.1710     6.1160    -1.0880 hc         1 7J6       0.078700
     37 H37         -2.8000     5.0510    -2.3540 hc         1 7J6       0.078700
     38 H40         -3.0510     4.5240     0.6920 hx         1 7J6       0.129700
     39 H42         -1.3340     3.1460    -1.4670 h1         1 7J6       0.078700
     40 H41         -0.7180     4.0920    -0.1140 h1         1 7J6       0.078700
     41 H44         -0.1120     0.5380     0.8280 h1         1 7J6       0.072700
     42 H43          0.1300     1.3720    -0.7030 h1         1 7J6       0.072700
     43 H47          5.7010     4.0680    -0.2550 hc         1 7J6       0.048033
     44 H48          6.2160     2.6870    -1.2370 hc         1 7J6       0.048033
     45 H49          4.5920     3.3590    -1.4400 hc         1 7J6       0.048033
     46 H52          5.6300     1.1420     2.1630 hc         1 7J6       0.048033
     47 H50          6.8340     1.4070     0.8950 hc         1 7J6       0.048033
     48 H51          6.2970     2.7610     1.9020 hc         1 7J6       0.048033
     49 H53          5.0170    -1.8210    -1.9600 h4         1 7J6       0.031100
     50 H58         -0.7070    -5.4110     1.4940 ha         1 7J6       0.120000
     51 H59          1.5670    -4.6490     2.1730 ha         1 7J6       0.119500
     52 H60          2.9670    -3.3380     0.5960 ha         1 7J6       0.104000
     53 H61          1.1490    -0.5120    -0.5610 ha         1 7J6       0.105000
     54 H62         -2.4580     0.8200    -0.9160 h1         1 7J6       0.047700
     55 H63         -4.8200     1.2460    -0.3450 hx         1 7J6       0.114200
     56 H64         -4.3400     2.1470     1.1090 hx         1 7J6       0.114200
     57 H72         -2.7210    -3.5090     1.1100 h1         1 7J6       0.065700
     58 H71         -4.1640    -4.2440     1.8500 h1         1 7J6       0.065700
     59 H74         -5.3330    -2.0620     1.8630 h1         1 7J6       0.065450
     60 H73         -3.7820    -1.8900     2.6870 h1         1 7J6       0.065450
     61 H46          3.6140     2.6610     2.1990 h1         1 7J6       0.070700
     62 H45          3.3820     3.8040     0.8640 h1         1 7J6       0.070700
     63 H57         -1.5810    -4.8510    -0.7730 ha         1 7J6       0.119500
     64 H66         -4.9050     3.6910    -0.6490 hn         1 7J6       0.498000
     65 H68         -5.5060    -1.2000    -0.6240 h1         1 7J6       0.065450
     66 H67         -4.0500    -0.5240    -1.3630 h1         1 7J6       0.065450
     67 H69         -4.4540    -2.9040    -2.0770 h1         1 7J6       0.065700
     68 H70         -2.8930    -2.7160    -1.2430 h1         1 7J6       0.065700
     69 H65         -3.8970     2.9760    -1.7330 hn         1 7J6       0.498000
     70 O30         -1.9880    -0.4050     1.8680 o          1 7J6      -0.531100
     71 C17          2.3410    -2.5320    -1.9670 c3         1 7J6       0.016200
     72 H56         -0.1990    -3.5210    -2.3490 ha         1 7J6       0.104000
     73 H55          1.7370    -2.2070    -2.8230 hc         1 7J6       0.058200
     74 H54          3.1080    -3.1960    -2.3840 hc         1 7J6       0.058200
@<TRIPOS>BOND
     1     1     2 1   
     2     1    35 1   
     3     1    36 1   
     4     1    37 1   
     5     2     3 1   
     6     2    29 1   
     7     2    38 1   
     8     3     4 1   
     9     3    39 1   
    10     3    40 1   
    11     4     5 1   
    12     4    19 1   
    13     5     6 1   
    14     5    41 1   
    15     5    42 1   
    16     6    23 2   
    17     6    24 1   
    18     7     8 1   
    19     7     9 1   
    20     7    10 1   
    21     7    25 1   
    22     8    43 1   
    23     8    44 1   
    24     8    45 1   
    25     9    46 1   
    26     9    47 1   
    27     9    48 1   
    28    10    18 ar  
    29    10    26 ar  
    30    11    12 ar  
    31    11    26 ar  
    32    11    49 1   
    33    12    17 ar  
    34    12    71 1   
    35    13    27 ar  
    36    13    28 ar  
    37    13    72 1   
    38    14    15 ar  
    39    14    28 ar  
    40    14    50 1   
    41    15    16 ar  
    42    15    51 1   
    43    16    27 ar  
    44    16    52 1   
    45    17    18 ar  
    46    17    53 1   
    47    18    24 1   
    48    19    20 1   
    49    19    30 1   
    50    19    54 1   
    51    20    29 1   
    52    20    55 1   
    53    20    56 1   
    54    21    22 1   
    55    21    34 1   
    56    21    57 1   
    57    21    58 1   
    58    22    31 1   
    59    22    59 1   
    60    22    60 1   
    61    24    25 1   
    62    25    61 1   
    63    25    62 1   
    64    27    71 1   
    65    28    63 1   
    66    29    64 1   
    67    29    69 1   
    68    30    31 1   
    69    30    70 2   
    70    31    32 1   
    71    32    33 1   
    72    32    65 1   
    73    32    66 1   
    74    33    34 1   
    75    33    67 1   
    76    33    68 1   
    77    71    73 1   
    78    71    74 1   
@<TRIPOS>SUBSTRUCTURE
     1 7J6         1 TEMP              0 ****  ****    0 ROOT
