@<TRIPOS>MOLECULE
7J8
   98   101     1     0     0
SMALL
abcg2


@<TRIPOS>ATOM
      1 O15        -13.6290     0.4460    -1.9890 o          1 7J8      -0.757000
      2 C39        -13.8580    -0.5740    -1.3080 c          1 7J8       0.715000
      3 O14        -13.6840    -0.6980    -0.0770 o          1 7J8      -0.757000
      4 C38        -14.4150    -1.8160    -2.0310 c3         1 7J8      -0.199400
      5 C37        -14.6140    -1.6960    -3.5400 c3         1 7J8       0.018900
      6 C5         -15.1740    -2.9440    -4.1520 cc         1 7J8      -0.139300
      7 C2         -14.4280    -4.0990    -4.5410 cc         1 7J8      -0.106300
      8 C3         -12.9470    -4.2510    -4.4680 c3         1 7J8      -0.114100
      9 C4         -12.1130    -3.6630    -5.6370 c          1 7J8       0.720000
     10 O1         -10.8760    -3.8020    -5.5210 o          1 7J8      -0.784000
     11 O          -12.7120    -3.1150    -6.5800 o          1 7J8      -0.784000
     12 C6         -16.5010    -3.2250    -4.3880 cd         1 7J8      -0.178300
     13 N3         -16.5860    -4.4860    -4.8940 na         1 7J8      -0.097000
     14 C1         -15.3390    -5.0330    -4.9870 cd         1 7J8      -0.228300
     15 C          -15.1350    -6.4050    -5.5330 c3         1 7J8       0.022200
     16 C7         -17.7340    -2.4080    -4.1560 c3         1 7J8       0.082200
     17 C8         -18.7330    -3.0900    -3.2810 cc         1 7J8      -0.215300
     18 N2         -18.5830    -3.1360    -1.9250 na         1 7J8      -0.100000
     19 C13        -19.5760    -3.8800    -1.3580 cc         1 7J8      -0.160300
     20 C12        -20.3910    -4.3270    -2.3730 cd         1 7J8      -0.130300
     21 C34        -21.6520    -5.1140    -2.2070 c3         1 7J8       0.010900
     22 C35        -22.8960    -4.2260    -2.0950 c3         1 7J8      -0.183400
     23 C36        -24.2000    -4.9950    -1.8210 c          1 7J8       0.711000
     24 O13        -24.3810    -6.0480    -2.4700 o          1 7J8      -0.775500
     25 O12        -24.9880    -4.5030    -0.9840 o          1 7J8      -0.775500
     26 C9         -19.8500    -3.8290    -3.5970 cd         1 7J8      -0.126300
     27 C10        -20.3910    -4.1100    -4.9630 c3         1 7J8      -0.112100
     28 C11        -20.1070    -5.5450    -5.4580 c          1 7J8       0.727000
     29 O3         -18.9000    -5.8960    -5.5020 o          1 7J8      -0.764500
     30 O2         -21.0740    -6.2500    -5.7890 o          1 7J8      -0.764500
     31 C14        -19.6890    -4.0630     0.1240 c3         1 7J8       0.066200
     32 C15        -20.8240    -3.3100     0.7350 cc         1 7J8      -0.148300
     33 N1         -20.9290    -1.9520     0.6400 na         1 7J8      -0.088000
     34 C20        -22.0720    -1.5200     1.2480 cc         1 7J8      -0.206300
     35 C19        -22.7280    -2.6280     1.7340 cd         1 7J8      -0.097300
     36 C31        -24.0280    -2.6640     2.4750 c3         1 7J8       0.030900
     37 C32        -23.8580    -2.8780     3.9770 c3         1 7J8      -0.207400
     38 C33        -25.1520    -3.0720     4.7870 c          1 7J8       0.712000
     39 O11        -26.2020    -3.3170     4.1580 o          1 7J8      -0.809000
     40 O10        -25.0380    -2.9860     6.0290 o          1 7J8      -0.809000
     41 C16        -21.9270    -3.7680     1.4130 cd         1 7J8      -0.045300
     42 C17        -22.2520    -5.1930     1.7090 c3         1 7J8      -0.135100
     43 C18        -21.5210    -5.8540     2.9040 c          1 7J8       0.705000
     44 O5         -20.8110    -5.1370     3.6350 o          1 7J8      -0.762500
     45 O4         -21.7220    -7.0800     3.0340 o          1 7J8      -0.762500
     46 C21        -22.4190    -0.0660     1.3190 c3         1 7J8       0.102200
     47 C22        -21.2820     0.8090     1.7480 cc         1 7J8      -0.216300
     48 N          -20.6610     1.6550     0.8770 na         1 7J8      -0.142000
     49 C27        -19.6690     2.3380     1.5130 cc         1 7J8      -0.220000
     50 C26        -19.6390     1.9250     2.8250 cd         1 7J8      -0.130300
     51 C28        -18.7060     2.4100     3.8920 c3         1 7J8       0.046900
     52 C29        -17.3210     1.7620     3.8540 c3         1 7J8      -0.198400
     53 C30        -16.4180     2.2080     2.6870 c          1 7J8       0.704000
     54 O9         -15.6000     1.3660     2.2600 o          1 7J8      -0.751500
     55 O8         -16.5380     3.3870     2.2910 o          1 7J8      -0.751500
     56 C23        -20.6620     0.9380     2.9730 cd         1 7J8      -0.044300
     57 C24        -21.0380     0.2100     4.2190 c3         1 7J8      -0.148100
     58 C25        -20.2310    -1.0630     4.5960 c          1 7J8       0.729000
     59 O7         -20.5990    -1.6180     5.6530 o          1 7J8      -0.722000
     60 O6         -19.3050    -1.4320     3.8490 o          1 7J8      -0.722000
     61 H43        -15.3720    -2.0810    -1.5650 hc         1 7J8       0.020200
     62 H44        -13.7570    -2.6650    -1.8150 hc         1 7J8       0.020200
     63 H42        -13.6610    -1.4500    -4.0160 hc         1 7J8       0.026700
     64 H41        -15.2720    -0.8480    -3.7470 hc         1 7J8       0.026700
     65 H8         -12.6780    -5.3100    -4.3830 hc         1 7J8       0.013200
     66 H7         -12.5710    -3.7970    -3.5430 hc         1 7J8       0.013200
     67 H3         -17.4730    -4.9690    -5.1150 hn         1 7J8       0.414000
     68 H6         -15.2300    -6.4410    -6.6220 hc         1 7J8       0.002367
     69 H5         -14.1400    -6.7760    -5.2880 hc         1 7J8       0.002367
     70 H4         -15.8560    -7.1170    -5.1270 hc         1 7J8       0.002367
     71 H11        -17.4410    -1.4490    -3.7200 hc         1 7J8       0.032700
     72 H10        -18.2180    -2.1650    -5.1080 hc         1 7J8       0.032700
     73 H2         -17.8310    -2.6980    -1.4160 hn         1 7J8       0.352000
     74 H36        -21.7780    -5.8060    -3.0420 hc         1 7J8       0.045700
     75 H37        -21.5760    -5.7360    -1.3090 hc         1 7J8       0.045700
     76 H38        -22.7320    -3.4820    -1.3150 hc         1 7J8       0.020700
     77 H39        -23.0100    -3.6720    -3.0360 hc         1 7J8       0.020700
     78 H12        -19.9440    -3.4150    -5.6820 hc         1 7J8       0.007700
     79 H13        -21.4680    -3.9250    -4.9880 hc         1 7J8       0.007700
     80 H16        -19.8290    -5.1220     0.3530 hc         1 7J8       0.062200
     81 H15        -18.7400    -3.7840     0.5960 hc         1 7J8       0.062200
     82 H1         -20.2440    -1.3510     0.2120 hn         1 7J8       0.327000
     83 H31        -24.5890    -1.7410     2.3000 hc         1 7J8       0.014700
     84 H32        -24.6530    -3.4620     2.0660 hc         1 7J8       0.014700
     85 H34        -23.2150    -3.7510     4.1410 hc         1 7J8       0.069200
     86 H33        -23.2960    -2.0410     4.4030 hc         1 7J8       0.069200
     87 H18        -23.3280    -5.2890     1.8950 hc         1 7J8       0.030200
     88 H17        -22.0740    -5.8160     0.8260 hc         1 7J8       0.030200
     89 H21        -22.7940     0.2890     0.3520 hc         1 7J8       0.009200
     90 H20        -23.2540     0.0480     2.0140 hc         1 7J8       0.009200
     91 H          -20.9170     1.7730    -0.0890 hn         1 7J8       0.298000
     92 H25        -19.0630     3.0630     0.9950 h4         1 7J8       0.131000
     93 H27        -18.5890     3.4930     3.8280 hc         1 7J8      -0.014300
     94 H26        -19.1570     2.2140     4.8690 hc         1 7J8      -0.014300
     95 H29        -17.4270     0.6750     3.8550 hc         1 7J8       0.025700
     96 H28        -16.7910     2.0130     4.7830 hc         1 7J8       0.025700
     97 H23        -20.9830     0.8890     5.0780 hc         1 7J8       0.003700
     98 H22        -22.0920    -0.0830     4.1660 hc         1 7J8       0.003700
@<TRIPOS>BOND
     1     1     2 1   
     2     2     3 1   
     3     2     4 1   
     4     4     5 1   
     5     4    61 1   
     6     4    62 1   
     7     5     6 1   
     8     5    63 1   
     9     5    64 1   
    10     6     7 1   
    11     6    12 2   
    12     7     8 1   
    13     7    14 2   
    14     8     9 1   
    15     8    65 1   
    16     8    66 1   
    17     9    10 1   
    18     9    11 1   
    19    12    13 1   
    20    12    16 1   
    21    13    14 1   
    22    13    67 1   
    23    14    15 1   
    24    15    68 1   
    25    15    69 1   
    26    15    70 1   
    27    16    17 1   
    28    16    71 1   
    29    16    72 1   
    30    17    18 1   
    31    17    26 2   
    32    18    19 1   
    33    18    73 1   
    34    19    20 2   
    35    19    31 1   
    36    20    21 1   
    37    20    26 1   
    38    21    22 1   
    39    21    74 1   
    40    21    75 1   
    41    22    23 1   
    42    22    76 1   
    43    22    77 1   
    44    23    24 1   
    45    23    25 1   
    46    26    27 1   
    47    27    28 1   
    48    27    78 1   
    49    27    79 1   
    50    28    29 1   
    51    28    30 1   
    52    31    32 1   
    53    31    80 1   
    54    31    81 1   
    55    32    33 1   
    56    32    41 2   
    57    33    34 1   
    58    33    82 1   
    59    34    35 2   
    60    34    46 1   
    61    35    36 1   
    62    35    41 1   
    63    36    37 1   
    64    36    83 1   
    65    36    84 1   
    66    37    38 1   
    67    37    85 1   
    68    37    86 1   
    69    38    39 1   
    70    38    40 1   
    71    41    42 1   
    72    42    43 1   
    73    42    87 1   
    74    42    88 1   
    75    43    44 1   
    76    43    45 1   
    77    46    47 1   
    78    46    89 1   
    79    46    90 1   
    80    47    48 1   
    81    47    56 2   
    82    48    49 1   
    83    48    91 1   
    84    49    50 2   
    85    49    92 1   
    86    50    51 1   
    87    50    56 1   
    88    51    52 1   
    89    51    93 1   
    90    51    94 1   
    91    52    53 1   
    92    52    95 1   
    93    52    96 1   
    94    53    54 1   
    95    53    55 1   
    96    56    57 1   
    97    57    58 1   
    98    57    97 1   
    99    57    98 1   
   100    58    59 1   
   101    58    60 1   
@<TRIPOS>SUBSTRUCTURE
     1 7J8         1 TEMP              0 ****  ****    0 ROOT
