@<TRIPOS>MOLECULE
7J8
   98   101     1     0     0
SMALL
No Charge or Current Charge


@<TRIPOS>ATOM
      1 O15        -14.1690    -3.0930     1.4390 o          1 7J8      -0.757000
      2 C39        -13.6430    -3.8360     0.6250 c          1 7J8       0.715000
      3 O14        -12.5280    -4.3150     0.7720 o          1 7J8      -0.757000
      4 C38        -14.4060    -4.1510    -0.6720 c3         1 7J8      -0.199400
      5 C37        -14.0720    -3.0910    -1.7480 c3         1 7J8       0.018900
      6 C5         -14.7620    -3.3550    -3.0720 cc         1 7J8      -0.139300
      7 C2         -14.2040    -4.1200    -4.1390 cc         1 7J8      -0.106300
      8 C3         -12.8400    -4.7940    -4.1140 c3         1 7J8      -0.114100
      9 C4         -11.7090    -3.9250    -4.7210 c          1 7J8       0.720000
     10 O1         -11.5030    -3.9890    -5.9250 o          1 7J8      -0.784000
     11 O          -11.1050    -3.1500    -3.9910 o          1 7J8      -0.784000
     12 C6         -16.0050    -2.9140    -3.4620 cd         1 7J8      -0.178300
     13 N3         -16.2210    -3.4010    -4.7490 na         1 7J8      -0.097000
     14 C1         -15.1170    -4.1470    -5.1660 cd         1 7J8      -0.228300
     15 C          -15.0360    -4.8180    -6.5130 c3         1 7J8       0.022200
     16 C7         -17.0240    -2.0660    -2.7370 c3         1 7J8       0.082200
     17 C8         -18.2890    -2.8150    -2.3820 cc         1 7J8      -0.215300
     18 N2         -18.3780    -3.6570    -1.2780 na         1 7J8      -0.100000
     19 C13        -19.6630    -4.1760    -1.1540 cc         1 7J8      -0.160300
     20 C12        -20.3840    -3.6700    -2.2090 cd         1 7J8      -0.130300
     21 C34        -21.8480    -3.9500    -2.4940 c3         1 7J8       0.010900
     22 C35        -22.8030    -2.9060    -1.8660 c3         1 7J8      -0.183400
     23 C36        -24.2480    -3.1900    -2.3110 c          1 7J8       0.711000
     24 O13        -24.6550    -2.6600    -3.3340 o          1 7J8      -0.775500
     25 O12        -24.9210    -3.9670    -1.6500 o          1 7J8      -0.775500
     26 C9         -19.5280    -2.8330    -2.9830 cd         1 7J8      -0.126300
     27 C10        -19.9360    -2.0720    -4.2400 c3         1 7J8      -0.112100
     28 C11        -19.6980    -2.8790    -5.5410 c          1 7J8       0.727000
     29 O3         -18.5910    -2.8240    -6.0610 o          1 7J8      -0.764500
     30 O2         -20.5860    -3.6130    -5.9520 o          1 7J8      -0.764500
     31 C14        -20.0980    -5.0890    -0.0320 c3         1 7J8       0.066200
     32 C15        -20.9140    -4.3790     1.0220 cc         1 7J8      -0.148300
     33 N1         -20.5860    -3.1200     1.5110 na         1 7J8      -0.088000
     34 C20        -21.5560    -2.6620     2.3950 cc         1 7J8      -0.206300
     35 C19        -22.5020    -3.6590     2.4770 cd         1 7J8      -0.097300
     36 C31        -23.7750    -3.5940     3.3030 c3         1 7J8       0.030900
     37 C32        -23.6020    -4.1700     4.7260 c3         1 7J8      -0.207400
     38 C33        -24.9000    -4.0010     5.5240 c          1 7J8       0.712000
     39 O11        -25.7410    -4.8860     5.4620 o          1 7J8      -0.809000
     40 O10        -25.0590    -2.9740     6.1660 o          1 7J8      -0.809000
     41 C16        -22.0900    -4.7420     1.6390 cd         1 7J8      -0.045300
     42 C17        -22.8300    -6.0540     1.4250 c3         1 7J8      -0.135100
     43 C18        -22.1120    -7.2560     2.0780 c          1 7J8       0.705000
     44 O5         -22.3550    -7.5140     3.2490 o          1 7J8      -0.762500
     45 O4         -21.2740    -7.8630     1.4280 o          1 7J8      -0.762500
     46 C21        -21.4810    -1.3130     3.0770 c3         1 7J8       0.102200
     47 C22        -21.1970    -0.1450     2.1530 cc         1 7J8      -0.216300
     48 N          -21.4960    -0.1360     0.7930 na         1 7J8      -0.142000
     49 C27        -21.1320     1.0780     0.2210 cc         1 7J8      -0.220000
     50 C26        -20.5930     1.8390     1.2250 cd         1 7J8      -0.130300
     51 C28        -20.0860     3.2600     1.0570 c3         1 7J8       0.046900
     52 C29        -18.6610     3.3750     0.4610 c3         1 7J8      -0.198400
     53 C30        -18.6710     3.1630    -1.0630 c          1 7J8       0.704000
     54 O9         -18.4100     2.0540    -1.5040 o          1 7J8      -0.751500
     55 O8         -18.9120     4.1300    -1.7740 o          1 7J8      -0.751500
     56 C23        -20.6360     1.0810     2.4360 cd         1 7J8      -0.044300
     57 C24        -20.1910     1.5500     3.8130 c3         1 7J8      -0.148100
     58 C25        -18.6830     1.3210     4.0660 c          1 7J8       0.729000
     59 O7         -17.9020     2.2200     3.7840 o          1 7J8      -0.722000
     60 O6         -18.3240     0.2280     4.4840 o          1 7J8      -0.722000
     61 H43        -15.4880    -4.0790    -0.5090 hc         1 7J8       0.020200
     62 H44        -14.0850    -5.1150    -1.0840 hc         1 7J8       0.020200
     63 H42        -12.9860    -3.0460    -1.8860 hc         1 7J8       0.026700
     64 H41        -14.3550    -2.1010    -1.3730 hc         1 7J8       0.026700
     65 H8         -12.9480    -5.7090    -4.7080 hc         1 7J8       0.013200
     66 H7         -12.6100    -5.0160    -3.0660 hc         1 7J8       0.013200
     67 H3         -17.0710    -3.2330    -5.2990 hn         1 7J8       0.414000
     68 H6         -14.2510    -4.3670    -7.1310 hc         1 7J8       0.002367
     69 H5         -14.8120    -5.8870    -6.4090 hc         1 7J8       0.002367
     70 H4         -15.9820    -4.7300    -7.0610 hc         1 7J8       0.002367
     71 H11        -16.5880    -1.6550    -1.8190 hc         1 7J8       0.032700
     72 H10        -17.2640    -1.1890    -3.3500 hc         1 7J8       0.032700
     73 H2         -17.6090    -3.8600    -0.6470 hn         1 7J8       0.352000
     74 H36        -22.0170    -3.9820    -3.5770 hc         1 7J8       0.045700
     75 H37        -22.1210    -4.9460    -2.1260 hc         1 7J8       0.045700
     76 H38        -22.7030    -3.0240    -0.7810 hc         1 7J8       0.020700
     77 H39        -22.4730    -1.9270    -2.2340 hc         1 7J8       0.020700
     78 H12        -19.3300    -1.1590    -4.2640 hc         1 7J8       0.007700
     79 H13        -21.0040    -1.8440    -4.1450 hc         1 7J8       0.007700
     80 H16        -20.6670    -5.9250    -0.4540 hc         1 7J8       0.062200
     81 H15        -19.2190    -5.5440     0.4410 hc         1 7J8       0.062200
     82 H1         -19.7710    -2.5870     1.2270 hn         1 7J8       0.327000
     83 H31        -24.1180    -2.5550     3.3800 hc         1 7J8       0.014700
     84 H32        -24.5930    -4.1180     2.7960 hc         1 7J8       0.014700
     85 H34        -23.3710    -5.2330     4.5950 hc         1 7J8       0.069200
     86 H33        -22.7950    -3.5920     5.1890 hc         1 7J8       0.069200
     87 H18        -23.8220    -5.9550     1.8740 hc         1 7J8       0.030200
     88 H17        -22.8830    -6.2040     0.3400 hc         1 7J8       0.030200
     89 H21        -22.4100    -1.1050     3.6220 hc         1 7J8       0.009200
     90 H20        -20.7000    -1.3660     3.8450 hc         1 7J8       0.009200
     91 H          -21.9180    -0.9130     0.2940 hn         1 7J8       0.298000
     92 H25        -21.2790     1.2970    -0.8300 h4         1 7J8       0.131000
     93 H27        -20.7840     3.8290     0.4290 hc         1 7J8      -0.014300
     94 H26        -20.0890     3.7760     2.0220 hc         1 7J8      -0.014300
     95 H29        -18.0450     2.6160     0.9610 hc         1 7J8       0.025700
     96 H28        -18.3530     4.4050     0.6810 hc         1 7J8       0.025700
     97 H23        -20.4250     2.6180     3.8850 hc         1 7J8       0.003700
     98 H22        -20.7710     0.9630     4.5370 hc         1 7J8       0.003700
@<TRIPOS>BOND
     1     1     2 1   
     2     2     3 1   
     3     2     4 1   
     4     4     5 1   
     5     4    61 1   
     6     4    62 1   
     7     5     6 1   
     8     5    63 1   
     9     5    64 1   
    10     6     7 1   
    11     6    12 2   
    12     7     8 1   
    13     7    14 2   
    14     8     9 1   
    15     8    65 1   
    16     8    66 1   
    17     9    10 1   
    18     9    11 1   
    19    12    13 1   
    20    12    16 1   
    21    13    14 1   
    22    13    67 1   
    23    14    15 1   
    24    15    68 1   
    25    15    69 1   
    26    15    70 1   
    27    16    17 1   
    28    16    71 1   
    29    16    72 1   
    30    17    18 1   
    31    17    26 2   
    32    18    19 1   
    33    18    73 1   
    34    19    20 2   
    35    19    31 1   
    36    20    21 1   
    37    20    26 1   
    38    21    22 1   
    39    21    74 1   
    40    21    75 1   
    41    22    23 1   
    42    22    76 1   
    43    22    77 1   
    44    23    24 1   
    45    23    25 1   
    46    26    27 1   
    47    27    28 1   
    48    27    78 1   
    49    27    79 1   
    50    28    29 1   
    51    28    30 1   
    52    31    32 1   
    53    31    80 1   
    54    31    81 1   
    55    32    33 1   
    56    32    41 2   
    57    33    34 1   
    58    33    82 1   
    59    34    35 2   
    60    34    46 1   
    61    35    36 1   
    62    35    41 1   
    63    36    37 1   
    64    36    83 1   
    65    36    84 1   
    66    37    38 1   
    67    37    85 1   
    68    37    86 1   
    69    38    39 1   
    70    38    40 1   
    71    41    42 1   
    72    42    43 1   
    73    42    87 1   
    74    42    88 1   
    75    43    44 1   
    76    43    45 1   
    77    46    47 1   
    78    46    89 1   
    79    46    90 1   
    80    47    48 1   
    81    47    56 2   
    82    48    49 1   
    83    48    91 1   
    84    49    50 2   
    85    49    92 1   
    86    50    51 1   
    87    50    56 1   
    88    51    52 1   
    89    51    93 1   
    90    51    94 1   
    91    52    53 1   
    92    52    95 1   
    93    52    96 1   
    94    53    54 1   
    95    53    55 1   
    96    56    57 1   
    97    57    58 1   
    98    57    97 1   
    99    57    98 1   
   100    58    59 1   
   101    58    60 1   
@<TRIPOS>SUBSTRUCTURE
     1 7J8         1 TEMP              0 ****  ****    0 ROOT
