@<TRIPOS>MOLECULE
7JA
   51    51     1     0     0
SMALL
bcc


@<TRIPOS>ATOM
      1 C            1.4460     1.9640    50.2830 c          1 7JA       0.935600
      2 N            1.3500     3.1420    48.0830 ns         1 7JA      -0.531900
      3 O            1.4670     0.8230    50.7860 o          1 7JA      -0.831300
      4 CA           1.9500     2.0470    48.8170 c3         1 7JA      -0.027300
      5 CB           3.4850     2.1720    48.7270 c3         1 7JA      -0.045700
      6 C01         -3.2420     8.4720    42.8520 c3         1 7JA      -0.084100
      7 C02         -3.1670     7.3510    43.8880 c3         1 7JA      -0.047200
      8 C03         -1.7960     6.7550    43.9620 c2         1 7JA      -0.176200
      9 C04         -0.9880     6.7310    45.0210 c2         1 7JA      -0.156200
     10 C05         -1.3040     7.2990    46.3770 c3         1 7JA      -0.032200
     11 C06         -2.1780     6.3760    47.2570 c5         1 7JA      -0.167700
     12 C07         -2.6910     7.1860    48.4410 c          1 7JA       0.574100
     13 O08         -3.5240     8.0570    48.3720 o          1 7JA      -0.544100
     14 C09         -1.9870     6.7390    49.7040 c5         1 7JA      -0.186400
     15 C10         -0.8800     5.8110    49.2190 c5         1 7JA      -0.082400
     16 C11         -1.4570     5.2010    47.9350 c5         1 7JA      -0.051700
     17 C12         -0.4300     4.4500    47.0980 c3         1 7JA      -0.147400
     18 O14         -0.7440     2.3120    48.1250 o          1 7JA      -0.615100
     19 CG1          4.1880     0.8670    49.1070 c3         1 7JA      -0.069400
     20 CG2          4.0380     3.3560    49.5190 c3         1 7JA      -0.077100
     21 OXT          1.0990     3.0240    50.8370 o          1 7JA      -0.831300
     22 HN           1.9210     3.9340    47.8380 hn         1 7JA       0.288500
     23 HA           1.6710     1.1150    48.3140 h1         1 7JA       0.053700
     24 HB           3.7060     2.3490    47.6650 hc         1 7JA       0.004700
     25 H01         -4.2560     8.8650    42.7720 hc         1 7JA       0.028033
     26 H01A        -2.5830     9.2980    43.1210 hc         1 7JA       0.028033
     27 H02         -3.4890     7.7260    44.8610 hc         1 7JA       0.048700
     28 H03         -1.4330     6.3110    43.0390 ha         1 7JA       0.110000
     29 H04         -0.0170     6.2630    44.9030 ha         1 7JA       0.119000
     30 H05         -0.3730     7.5380    46.8980 hc         1 7JA       0.047700
     31 H05A        -1.8340     8.2480    46.2560 hc         1 7JA       0.047700
     32 H06         -3.0270     6.0400    46.6550 hc         1 7JA       0.072700
     33 H09         -1.6520     7.5920    50.2960 hc         1 7JA       0.069700
     34 H09A        -2.7140     6.1940    50.3170 hc         1 7JA       0.069700
     35 H10          0.0230     6.3830    48.9850 hc         1 7JA       0.076200
     36 H10A        -0.6000     5.0530    49.9490 hc         1 7JA       0.076200
     37 H11         -2.2330     4.4850    48.2250 hc         1 7JA       0.075700
     38 H12         -0.8790     4.1380    46.1520 hc         1 7JA       0.043200
     39 H12A         0.4090     5.1060    46.8520 hc         1 7JA       0.043200
     40 HD1          6.0980    -0.1410    48.9370 hc         1 7JA       0.015700
     41 HD1A         5.8020     1.0360    47.6620 hc         1 7JA       0.015700
     42 HG1          4.0820     0.6890    50.1790 hc         1 7JA       0.057200
     43 HG2          5.0920     3.5150    49.2920 hc         1 7JA       0.026033
     44 HG2A         3.5230     4.2910    49.2930 hc         1 7JA       0.026033
     45 HG2B         3.9530     3.1890    50.5940 hc         1 7JA       0.026033
     46 H26         -2.9440     8.1170    41.8650 hc         1 7JA       0.028033
     47 H27         -3.8800     6.5670    43.6130 hc         1 7JA       0.048700
     48 H28          6.2480     1.5740    49.2790 hc         1 7JA       0.015700
     49 H29          3.6800     0.0360    48.6090 hc         1 7JA       0.057200
     50 CD1          5.6630     0.8370    48.7270 c3         1 7JA      -0.086100
     51 C13          0.0400     3.2040    47.8190 c          1 7JA       0.661100
@<TRIPOS>BOND
     1     1     3 1   
     2     1     4 1   
     3     1    21 1   
     4     2     4 1   
     5     2    22 1   
     6     2    51 1   
     7     4     5 1   
     8     4    23 1   
     9     5    19 1   
    10     5    20 1   
    11     5    24 1   
    12     6     7 1   
    13     6    25 1   
    14     6    26 1   
    15     6    46 1   
    16     7     8 1   
    17     7    27 1   
    18     7    47 1   
    19     8     9 2   
    20     8    28 1   
    21     9    10 1   
    22     9    29 1   
    23    10    11 1   
    24    10    30 1   
    25    10    31 1   
    26    11    12 1   
    27    11    16 1   
    28    11    32 1   
    29    12    13 2   
    30    12    14 1   
    31    14    15 1   
    32    14    33 1   
    33    14    34 1   
    34    15    16 1   
    35    15    35 1   
    36    15    36 1   
    37    16    17 1   
    38    16    37 1   
    39    17    38 1   
    40    17    39 1   
    41    17    51 1   
    42    18    51 2   
    43    19    42 1   
    44    19    49 1   
    45    19    50 1   
    46    20    43 1   
    47    20    44 1   
    48    20    45 1   
    49    40    50 1   
    50    41    50 1   
    51    48    50 1   
@<TRIPOS>SUBSTRUCTURE
     1 7JA         1 TEMP              0 ****  ****    0 ROOT
