@<TRIPOS>MOLECULE
7JA
   51    51     1     0     0
SMALL
No Charge or Current Charge


@<TRIPOS>ATOM
      1 C            2.8850     3.4520    50.8700 c          1 7JA       0.725000
      2 N            1.4890     3.6910    48.8010 ns         1 7JA      -0.464900
      3 O            2.8140     2.8530    51.9350 o          1 7JA      -0.726000
      4 CA           2.3160     2.7470    49.5930 c3         1 7JA      -0.027300
      5 CB           3.4140     2.0510    48.7260 c3         1 7JA      -0.045700
      6 C01         -2.9180     9.0760    43.2370 c3         1 7JA      -0.084100
      7 C02         -2.6740     7.6070    43.6240 c3         1 7JA      -0.047200
      8 C03         -1.2620     7.3780    44.1330 c2         1 7JA      -0.226200
      9 C04         -0.8810     7.2000    45.4100 c2         1 7JA      -0.206200
     10 C05         -1.7770     7.2220    46.6350 c3         1 7JA      -0.032200
     11 C06         -2.4530     5.8540    46.9460 c5         1 7JA      -0.167700
     12 C07         -3.6380     6.0250    47.9010 c          1 7JA       0.574100
     13 O08         -4.8160     5.7940    47.6600 o          1 7JA      -0.544100
     14 C09         -2.9940     6.1230    49.2860 c5         1 7JA      -0.186400
     15 C10         -1.6780     5.2810    49.2130 c5         1 7JA      -0.082400
     16 C11         -1.6080     4.7900    47.7250 c5         1 7JA      -0.051700
     17 C12         -0.1770     4.5150    47.1960 c3         1 7JA      -0.147400
     18 O14          0.1620     2.1750    47.7250 o          1 7JA      -0.615100
     19 CG1          4.1130     0.9010    49.5060 c3         1 7JA      -0.069400
     20 CG2          4.4280     3.0580    48.1210 c3         1 7JA      -0.077100
     21 OXT          3.2320     4.6250    50.7910 o          1 7JA      -0.726000
     22 HN           1.6820     4.6810    48.9000 hn         1 7JA       0.288500
     23 HA           1.6380     1.9640    49.9570 h1         1 7JA       0.053700
     24 HB           2.8970     1.5820    47.8800 hc         1 7JA       0.004700
     25 H01         -3.9420     9.2100    42.8690 hc         1 7JA       0.028033
     26 H01A        -2.7760     9.7310    44.1050 hc         1 7JA       0.028033
     27 H02         -3.4190     7.3140    44.3730 hc         1 7JA       0.048700
     28 H03         -0.5110     7.3530    43.3410 ha         1 7JA       0.160000
     29 H04          0.1760     7.0470    45.6350 ha         1 7JA       0.169000
     30 H05         -1.2040     7.5790    47.5000 hc         1 7JA       0.047700
     31 H05A        -2.5590     7.9770    46.4840 hc         1 7JA       0.047700
     32 H06         -2.8320     5.4500    46.0010 hc         1 7JA       0.072700
     33 H09         -2.7090     7.1690    49.4450 hc         1 7JA       0.069700
     34 H09A        -3.6940     5.8150    50.0700 hc         1 7JA       0.069700
     35 H10         -0.8090     5.8960    49.4790 hc         1 7JA       0.076200
     36 H10A        -1.6900     4.4370    49.9140 hc         1 7JA       0.076200
     37 H11         -2.1340     3.8280    47.6530 hc         1 7JA       0.075700
     38 H12         -0.2360     4.2690    46.1290 hc         1 7JA       0.043200
     39 H12A         0.4360     5.4150    47.3280 hc         1 7JA       0.043200
     40 HD1          5.4060    -0.8350    49.2490 hc         1 7JA       0.015700
     41 HD1A         4.4950    -0.3990    47.7880 hc         1 7JA       0.015700
     42 HG1          4.6970     1.3180    50.3360 hc         1 7JA       0.057200
     43 HG2          5.0780     2.5680    47.3870 hc         1 7JA       0.026033
     44 HG2A         3.9120     3.8740    47.6010 hc         1 7JA       0.026033
     45 HG2B         5.0630     3.4940    48.9010 hc         1 7JA       0.026033
     46 H26         -2.2240     9.3890    42.4480 hc         1 7JA       0.028033
     47 H27         -2.8600     6.9710    42.7490 hc         1 7JA       0.048700
     48 H28          5.9060     0.5660    48.2880 hc         1 7JA       0.015700
     49 H29          3.3440     0.2610    49.9570 hc         1 7JA       0.057200
     50 CD1          5.0370     0.0070    48.6510 c3         1 7JA      -0.086100
     51 C13          0.4860     3.3380    47.9240 c          1 7JA       0.594100
@<TRIPOS>BOND
     1     1     3 1   
     2     1     4 1   
     3     1    21 1   
     4     2     4 1   
     5     2    22 1   
     6     2    51 1   
     7     4     5 1   
     8     4    23 1   
     9     5    19 1   
    10     5    20 1   
    11     5    24 1   
    12     6     7 1   
    13     6    25 1   
    14     6    26 1   
    15     6    46 1   
    16     7     8 1   
    17     7    27 1   
    18     7    47 1   
    19     8     9 2   
    20     8    28 1   
    21     9    10 1   
    22     9    29 1   
    23    10    11 1   
    24    10    30 1   
    25    10    31 1   
    26    11    12 1   
    27    11    16 1   
    28    11    32 1   
    29    12    13 2   
    30    12    14 1   
    31    14    15 1   
    32    14    33 1   
    33    14    34 1   
    34    15    16 1   
    35    15    35 1   
    36    15    36 1   
    37    16    17 1   
    38    16    37 1   
    39    17    38 1   
    40    17    39 1   
    41    17    51 1   
    42    18    51 2   
    43    19    42 1   
    44    19    49 1   
    45    19    50 1   
    46    20    43 1   
    47    20    44 1   
    48    20    45 1   
    49    40    50 1   
    50    41    50 1   
    51    48    50 1   
@<TRIPOS>SUBSTRUCTURE
     1 7JA         1 TEMP              0 ****  ****    0 ROOT
