@<TRIPOS>MOLECULE
7JB
   41    43     1     0     0
SMALL
No Charge or Current Charge


@<TRIPOS>ATOM
      1 C1          -2.4680    -1.3780     1.6360 c3         1 7JB      -0.109433
      2 C2          -3.8830    -0.8390     1.3150 c3         1 7JB       0.260200
      3 C3          -4.8280    -1.9780     0.8560 c3         1 7JB      -0.109433
      4 C9          -1.3590     0.5470    -0.6930 ca         1 7JB      -0.254500
      5 C10         -1.0700     1.7810    -0.0880 ca         1 7JB       0.000000
      6 C11          0.2470     2.0850     0.2870 ca         1 7JB      -0.092000
      7 C12          1.2960     1.1640     0.0630 ca         1 7JB      -0.085600
      8 C13          1.0040    -0.0810    -0.5500 ca         1 7JB      -0.154600
      9 C14         -0.3250    -0.3800    -0.9260 ca         1 7JB       0.023000
     10 C15          2.0920    -1.0940    -0.8060 c          1 7JB       0.590300
     11 C19          5.8660    -1.3660    -0.2340 ca         1 7JB      -0.095000
     12 C20          6.1550    -0.1360     0.3720 ca         1 7JB      -0.098000
     13 C21          5.1270     0.7920     0.6000 ca         1 7JB      -0.065000
     14 C22          3.7950     0.5020     0.2240 ca         1 7JB      -0.134600
     15 C4          -4.4710    -0.1890     2.5880 c3         1 7JB      -0.109433
     16 N5          -3.8450     0.2510     0.3190 n7         1 7JB      -0.928300
     17 S6          -3.0510     0.1600    -1.1550 sy         1 7JB       1.166600
     18 O7          -3.5940     1.2970    -1.9000 o          1 7JB      -0.542000
     19 O8          -3.1690    -1.2100    -1.6570 o          1 7JB      -0.542000
     20 O16          1.8390    -2.1700    -1.3360 o          1 7JB      -0.504100
     21 C17          3.5020    -0.7430    -0.3890 ca         1 7JB      -0.130600
     22 C18          4.5480    -1.6690    -0.6130 ca         1 7JB      -0.066000
     23 C23          2.7060     1.5170     0.4800 c          1 7JB       0.586300
     24 O24          2.9590     2.5950     1.0100 o          1 7JB      -0.504100
     25 H1          -2.0420    -1.9260     0.7890 hc         1 7JB       0.048811
     26 H2          -1.7860    -0.5620     1.9050 hc         1 7JB       0.048811
     27 H3          -2.5070    -2.0730     2.4830 hc         1 7JB       0.048811
     28 H4          -5.0180    -2.6720     1.6840 hc         1 7JB       0.048811
     29 H5          -5.7960    -1.5820     0.5250 hc         1 7JB       0.048811
     30 H6          -4.3990    -2.5680     0.0400 hc         1 7JB       0.048811
     31 H7          -1.8640     2.5010     0.1010 ha         1 7JB       0.134000
     32 H8           0.4480     3.0450     0.7580 ha         1 7JB       0.142000
     33 H9          -0.5550    -1.3350    -1.3970 ha         1 7JB       0.164000
     34 H10          6.6620    -2.0860    -0.4120 ha         1 7JB       0.123000
     35 H11          7.1760     0.1000     0.6650 ha         1 7JB       0.122000
     36 H12          5.3730     1.7420     1.0720 ha         1 7JB       0.138000
     37 H13         -3.8400     0.6410     2.9290 hc         1 7JB       0.048811
     38 H14         -5.4780     0.2050     2.4030 hc         1 7JB       0.048811
     39 H15         -4.5390    -0.9180     3.4040 hc         1 7JB       0.048811
     40 H16         -4.7930     0.4430     0.0050 hn         1 7JB       0.497000
     41 H17          4.3450    -2.6300    -1.0820 ha         1 7JB       0.140000
@<TRIPOS>BOND
     1     1     2 1   
     2     1    25 1   
     3     1    26 1   
     4     1    27 1   
     5     2     3 1   
     6     2    15 1   
     7     2    16 1   
     8     3    28 1   
     9     3    29 1   
    10     3    30 1   
    11     4     5 ar  
    12     4     9 ar  
    13     4    17 1   
    14     5     6 ar  
    15     5    31 1   
    16     6     7 ar  
    17     6    32 1   
    18     7     8 ar  
    19     7    23 1   
    20     8     9 ar  
    21     8    10 1   
    22     9    33 1   
    23    10    20 2   
    24    10    21 1   
    25    11    12 ar  
    26    11    22 ar  
    27    11    34 1   
    28    12    13 ar  
    29    12    35 1   
    30    13    14 ar  
    31    13    36 1   
    32    14    21 ar  
    33    14    23 1   
    34    15    37 1   
    35    15    38 1   
    36    15    39 1   
    37    16    17 1   
    38    16    40 1   
    39    17    18 2   
    40    17    19 2   
    41    21    22 ar  
    42    22    41 1   
    43    23    24 2   
@<TRIPOS>SUBSTRUCTURE
     1 7JB         1 TEMP              0 ****  ****    0 ROOT
