@<TRIPOS>MOLECULE
7JB
   41    43     1     0     0
SMALL
abcg2


@<TRIPOS>ATOM
      1 C1          -2.5850    -1.4040     1.7040 c3         1 7JB      -0.109433
      2 C2          -3.9430    -0.8300     1.3130 c3         1 7JB       0.260200
      3 C3          -4.8960    -1.9390     0.8680 c3         1 7JB      -0.109433
      4 C9          -1.2710     0.4300    -0.6150 ca         1 7JB      -0.254500
      5 C10         -1.0260     1.6480     0.0090 ca         1 7JB       0.000000
      6 C11          0.2680     1.9720     0.3680 ca         1 7JB      -0.092000
      7 C12          1.3120     1.0900     0.1010 ca         1 7JB      -0.085600
      8 C13          1.0520    -0.1240    -0.5340 ca         1 7JB      -0.154600
      9 C14         -0.2500    -0.4540    -0.8960 ca         1 7JB       0.023000
     10 C15          2.1430    -1.0850    -0.8360 c          1 7JB       0.590300
     11 C19          5.8580    -1.2680    -0.3310 ca         1 7JB      -0.095000
     12 C20          6.1190    -0.0590     0.3030 ca         1 7JB      -0.098000
     13 C21          5.0860     0.8230     0.5720 ca         1 7JB      -0.065000
     14 C22          3.7810     0.5030     0.2080 ca         1 7JB      -0.134600
     15 C4          -4.5350    -0.0930     2.5130 c3         1 7JB      -0.109433
     16 N5          -3.7920     0.2050     0.2660 n7         1 7JB      -0.928300
     17 S6          -2.9360     0.0430    -1.1150 sy         1 7JB       1.166600
     18 O7          -3.3870     1.1150    -1.9900 o          1 7JB      -0.542000
     19 O8          -2.9160    -1.3190    -1.6290 o          1 7JB      -0.542000
     20 O16          1.9090    -2.1340    -1.3960 o          1 7JB      -0.504100
     21 C17          3.5180    -0.7140    -0.4310 ca         1 7JB      -0.130600
     22 C18          4.5620    -1.5940    -0.6980 ca         1 7JB      -0.066000
     23 C23          2.6930     1.4610     0.5070 c          1 7JB       0.586300
     24 O24          2.9110     2.5140     1.0650 o          1 7JB      -0.504100
     25 H1          -2.1180    -1.9700     0.8970 hc         1 7JB       0.048811
     26 H2          -1.9000    -0.6200     2.0260 hc         1 7JB       0.048811
     27 H3          -2.7210    -2.0930     2.5370 hc         1 7JB       0.048811
     28 H4          -5.0430    -2.6560     1.6770 hc         1 7JB       0.048811
     29 H5          -5.8720    -1.5300     0.6040 hc         1 7JB       0.048811
     30 H6          -4.5090    -2.4830     0.0070 hc         1 7JB       0.048811
     31 H7          -1.8340     2.3330     0.2300 ha         1 7JB       0.134000
     32 H8           0.4670     2.9130     0.8610 ha         1 7JB       0.142000
     33 H9          -0.4530    -1.3990    -1.3810 ha         1 7JB       0.164000
     34 H10          6.6660    -1.9560    -0.5410 ha         1 7JB       0.123000
     35 H11          7.1310     0.1960     0.5870 ha         1 7JB       0.122000
     36 H12          5.2940     1.7620     1.0650 ha         1 7JB       0.138000
     37 H13         -3.8780     0.7110     2.8460 hc         1 7JB       0.048811
     38 H14         -5.5090     0.3380     2.2730 hc         1 7JB       0.048811
     39 H15         -4.6740    -0.7860     3.3430 hc         1 7JB       0.048811
     40 H16         -4.6210     0.7700     0.1100 hn         1 7JB       0.497000
     41 H17          4.3600    -2.5340    -1.1920 ha         1 7JB       0.140000
@<TRIPOS>BOND
     1     1     2 1   
     2     1    25 1   
     3     1    26 1   
     4     1    27 1   
     5     2     3 1   
     6     2    15 1   
     7     2    16 1   
     8     3    28 1   
     9     3    29 1   
    10     3    30 1   
    11     4     5 ar  
    12     4     9 ar  
    13     4    17 1   
    14     5     6 ar  
    15     5    31 1   
    16     6     7 ar  
    17     6    32 1   
    18     7     8 ar  
    19     7    23 1   
    20     8     9 ar  
    21     8    10 1   
    22     9    33 1   
    23    10    20 2   
    24    10    21 1   
    25    11    12 ar  
    26    11    22 ar  
    27    11    34 1   
    28    12    13 ar  
    29    12    35 1   
    30    13    14 ar  
    31    13    36 1   
    32    14    21 ar  
    33    14    23 1   
    34    15    37 1   
    35    15    38 1   
    36    15    39 1   
    37    16    17 1   
    38    16    40 1   
    39    17    18 2   
    40    17    19 2   
    41    21    22 ar  
    42    22    41 1   
    43    23    24 2   
@<TRIPOS>SUBSTRUCTURE
     1 7JB         1 TEMP              0 ****  ****    0 ROOT
