@<TRIPOS>MOLECULE
7JC
   48    51     1     0     0
SMALL
No Charge or Current Charge


@<TRIPOS>ATOM
      1 C1           5.1960    -2.3190     0.3200 cc         1 7JC       0.434700
      2 C2           3.8980    -1.9450    -1.4400 cd         1 7JC       0.303900
      3 C3           4.1330    -0.6440    -1.0560 cc         1 7JC      -0.274300
      4 C7          -1.2690     0.4520    -0.7130 ca         1 7JC       0.077000
      5 C8          -2.3800     0.8900     0.0270 ca         1 7JC      -0.349500
      6 C9          -2.2270     1.9020     0.9890 ca         1 7JC       0.050000
      7 C10         -0.9650     2.4780     1.1950 ca         1 7JC      -0.197000
      8 C11          0.1540     2.0680     0.4350 ca         1 7JC       0.166600
      9 C12          2.5990     2.1480    -0.0410 c          1 7JC       0.622000
     10 C14         -4.9160    -1.7800     1.4290 cx         1 7JC       0.137200
     11 C15         -5.0360    -3.2810     1.3070 cx         1 7JC      -0.106900
     12 C16         -6.0210    -2.3880     0.5940 cx         1 7JC      -0.106900
     13 O3          -5.0140     0.9800     0.3580 o          1 7JC      -0.532500
     14 S1          -3.9790     0.1390    -0.2470 sy         1 7JC       1.169600
     15 O2          -4.0540    -0.3590    -1.6230 o          1 7JC      -0.532500
     16 N3          -3.7890    -1.2090     0.7270 n7         1 7JC      -0.855300
     17 C17         -5.2430    -1.1390     2.7750 c3         1 7JC      -0.086100
     18 C6          -0.0020     1.0340    -0.5000 ca         1 7JC      -0.241600
     19 C5           1.1810     0.5380    -1.2640 c          1 7JC       0.597600
     20 O            1.0600    -0.3460    -2.1040 o          1 7JC      -0.515000
     21 N2           1.4600     2.6240     0.6460 n          1 7JC      -0.295000
     22 O1           3.7080     2.6230     0.1670 o          1 7JC      -0.546000
     23 N1           2.4190     1.1200    -0.9770 n          1 7JC      -0.370400
     24 C4           3.6070     0.6070    -1.7060 c3         1 7JC       0.180300
     25 N            4.5110    -2.9080    -0.6500 nd         1 7JC      -0.648000
     26 S            5.1600    -0.5750     0.3490 ss         1 7JC      -0.009400
     27 C            5.9780    -3.0810     1.3480 c3         1 7JC      -0.131400
     28 H3           3.2910    -2.2540    -2.2830 h4         1 7JC       0.049100
     29 H6          -1.3880    -0.3480    -1.4440 ha         1 7JC       0.150000
     30 H7          -3.0750     2.2450     1.5820 ha         1 7JC       0.147000
     31 H8          -0.8810     3.2500     1.9530 ha         1 7JC       0.130000
     32 H9           1.4260     3.4430     2.6070 h1         1 7JC       0.061700
     33 H11          2.6170     4.2170     1.5370 h1         1 7JC       0.061700
     34 H10          0.8950     4.5620     1.3160 h1         1 7JC       0.061700
     35 H14         -4.2990    -3.8040     0.7020 hc         1 7JC       0.084200
     36 H13         -5.3910    -3.8390     2.1690 hc         1 7JC       0.084200
     37 H16         -7.0350    -2.3410     0.9820 hc         1 7JC       0.084200
     38 H15         -5.9480    -2.3250    -0.4880 hc         1 7JC       0.084200
     39 H12         -3.0690    -0.8980     1.3750 hn         1 7JC       0.491000
     40 H19         -6.0440    -1.6820     3.2910 hc         1 7JC       0.046033
     41 H18         -4.3670    -1.1410     3.4330 hc         1 7JC       0.046033
     42 H17         -5.5780    -0.1020     2.6600 hc         1 7JC       0.046033
     43 H5           4.4030     1.3620    -1.7470 h1         1 7JC       0.085700
     44 H4           3.3400     0.3940    -2.7510 h1         1 7JC       0.085700
     45 H1           7.0520    -3.0100     1.1440 hc         1 7JC       0.058700
     46 H2           5.7930    -2.6810     2.3510 hc         1 7JC       0.058700
     47 H            5.7010    -4.1420     1.3510 hc         1 7JC       0.058700
     48 C13          1.6140     3.7760     1.5780 c3         1 7JC       0.081300
@<TRIPOS>BOND
     1     1    25 2   
     2     1    26 1   
     3     1    27 1   
     4     2     3 2   
     5     2    25 1   
     6     2    28 1   
     7     3    24 1   
     8     3    26 1   
     9     4     5 ar  
    10     4    18 ar  
    11     4    29 1   
    12     5     6 ar  
    13     5    14 1   
    14     6     7 ar  
    15     6    30 1   
    16     7     8 ar  
    17     7    31 1   
    18     8    18 ar  
    19     8    21 1   
    20     9    21 1   
    21     9    22 2   
    22     9    23 1   
    23    10    11 1   
    24    10    12 1   
    25    10    16 1   
    26    10    17 1   
    27    11    12 1   
    28    11    35 1   
    29    11    36 1   
    30    12    37 1   
    31    12    38 1   
    32    13    14 2   
    33    14    15 2   
    34    14    16 1   
    35    16    39 1   
    36    17    40 1   
    37    17    41 1   
    38    17    42 1   
    39    18    19 1   
    40    19    20 2   
    41    19    23 1   
    42    21    48 1   
    43    23    24 1   
    44    24    43 1   
    45    24    44 1   
    46    27    45 1   
    47    27    46 1   
    48    27    47 1   
    49    32    48 1   
    50    33    48 1   
    51    34    48 1   
@<TRIPOS>SUBSTRUCTURE
     1 7JC         1 TEMP              0 ****  ****    0 ROOT
