@<TRIPOS>MOLECULE
7JC
   48    51     1     0     0
SMALL
bcc


@<TRIPOS>ATOM
      1 C1           5.0290    -2.1630     0.6790 cc         1 7JC       0.434700
      2 C2           3.9600    -1.8510    -1.2150 cd         1 7JC       0.369200
      3 C3           3.9340    -0.5600    -0.7950 cc         1 7JC      -0.194700
      4 C7          -1.5400     0.4650    -0.9720 ca         1 7JC       0.059000
      5 C8          -2.6780     0.9130    -0.3340 ca         1 7JC      -0.349500
      6 C9          -2.5860     1.8700     0.6720 ca         1 7JC       0.032000
      7 C10         -1.3570     2.3660     1.0520 ca         1 7JC      -0.215000
      8 C11         -0.1910     1.9070     0.4290 ca         1 7JC       0.166600
      9 C12          2.2080     1.9300     0.2100 c          1 7JC       0.831500
     10 C14         -4.3230    -1.7000     1.1130 cx         1 7JC       0.137200
     11 C15         -5.1880    -2.8930     1.3980 cx         1 7JC      -0.106900
     12 C16         -5.6290    -1.5270     1.8220 cx         1 7JC      -0.106900
     13 O3          -5.2650     0.9720    -0.0630 o          1 7JC      -0.603300
     14 S1          -4.2500     0.2310    -0.7890 sy         1 7JC       1.311200
     15 O2          -4.2860     0.1610    -2.2410 o          1 7JC      -0.603300
     16 N3          -4.2960    -1.3300    -0.2800 n7         1 7JC      -0.800100
     17 C17         -3.0360    -1.5510     1.8890 c3         1 7JC      -0.086100
     18 C6          -0.2990     0.9560    -0.5920 ca         1 7JC      -0.241600
     19 C5           0.9010     0.4690    -1.2700 c          1 7JC       0.740100
     20 O            0.8800    -0.3720    -2.1440 o          1 7JC      -0.590500
     21 N2           1.0510     2.3610     0.8090 n          1 7JC      -0.362000
     22 O1           3.3070     2.2930     0.5740 o          1 7JC      -0.621500
     23 N1           2.0810     1.0460    -0.8510 n          1 7JC      -0.504400
     24 C4           3.3240     0.6080    -1.4900 c3         1 7JC       0.180300
     25 N            4.5750    -2.7440    -0.3870 nd         1 7JC      -0.648000
     26 S            4.7250    -0.4600     0.7350 ss         1 7JC      -0.154300
     27 C            5.7670    -2.8530     1.7710 c3         1 7JC      -0.131400
     28 H3           3.5270    -2.1900    -2.1460 h4         1 7JC       0.049100
     29 H6          -1.5890    -0.2730    -1.7620 ha         1 7JC       0.168000
     30 H7          -3.4740     2.2320     1.1720 ha         1 7JC       0.165000
     31 H8          -1.3220     3.1070     1.8350 ha         1 7JC       0.148000
     32 H9           0.7150     2.9050     2.8100 h1         1 7JC       0.061700
     33 H11          2.1960     3.5400     2.0940 h1         1 7JC       0.061700
     34 H10          0.6440     4.2440     1.6440 h1         1 7JC       0.061700
     35 H14         -5.7010    -3.3520     0.5630 hc         1 7JC       0.084200
     36 H13         -4.8360    -3.5870     2.1510 hc         1 7JC       0.084200
     37 H16         -5.5850    -1.2720     2.8730 hc         1 7JC       0.084200
     38 H15         -6.4470    -1.0710     1.2840 hc         1 7JC       0.084200
     39 H12         -3.7490    -1.9450    -0.8730 hn         1 7JC       0.435800
     40 H19         -3.1280    -2.0260     2.8660 hc         1 7JC       0.046033
     41 H18         -2.2070    -2.0280     1.3630 hc         1 7JC       0.046033
     42 H17         -2.7720    -0.5080     2.0590 hc         1 7JC       0.046033
     43 H5           4.0060     1.4520    -1.5370 h1         1 7JC       0.085700
     44 H4           3.0920     0.3260    -2.5140 h1         1 7JC       0.085700
     45 H1           6.8340    -2.6340     1.7200 hc         1 7JC       0.058700
     46 H2           5.4150    -2.5420     2.7540 hc         1 7JC       0.058700
     47 H            5.6350    -3.9290     1.6790 hc         1 7JC       0.058700
     48 C13          1.1540     3.3180     1.9040 c3         1 7JC       0.081300
@<TRIPOS>BOND
     1     1    25 2   
     2     1    26 1   
     3     1    27 1   
     4     2     3 2   
     5     2    25 1   
     6     2    28 1   
     7     3    24 1   
     8     3    26 1   
     9     4     5 ar  
    10     4    18 ar  
    11     4    29 1   
    12     5     6 ar  
    13     5    14 1   
    14     6     7 ar  
    15     6    30 1   
    16     7     8 ar  
    17     7    31 1   
    18     8    18 ar  
    19     8    21 1   
    20     9    21 1   
    21     9    22 2   
    22     9    23 1   
    23    10    11 1   
    24    10    12 1   
    25    10    16 1   
    26    10    17 1   
    27    11    12 1   
    28    11    35 1   
    29    11    36 1   
    30    12    37 1   
    31    12    38 1   
    32    13    14 2   
    33    14    15 2   
    34    14    16 1   
    35    16    39 1   
    36    17    40 1   
    37    17    41 1   
    38    17    42 1   
    39    18    19 1   
    40    19    20 2   
    41    19    23 1   
    42    21    48 1   
    43    23    24 1   
    44    24    43 1   
    45    24    44 1   
    46    27    45 1   
    47    27    46 1   
    48    27    47 1   
    49    32    48 1   
    50    33    48 1   
    51    34    48 1   
@<TRIPOS>SUBSTRUCTURE
     1 7JC         1 TEMP              0 ****  ****    0 ROOT
