@<TRIPOS>MOLECULE
7JD
   28    30     1     0     0
SMALL
No Charge or Current Charge


@<TRIPOS>ATOM
      1 C4           1.5190     1.8420     0.2600 ca         1 7JD       0.162100
      2 C5          -1.8730     0.0890     0.0130 cp         1 7JD      -0.056000
      3 C6          -2.7650     1.0540    -0.5230 ca         1 7JD      -0.069500
      4 C7          -4.1530     0.8290    -0.5380 ca         1 7JD      -0.153500
      5 C8          -4.6730    -0.3640    -0.0170 ca         1 7JD       0.177000
      6 C10         -2.4260    -1.1100     0.5340 ca         1 7JD      -0.069500
      7 C13          1.9180    -0.5090    -0.1570 ca         1 7JD      -0.152600
      8 C1           0.5230    -0.7300    -0.1710 ca         1 7JD      -0.078000
      9 C2          -0.3950     0.3290     0.0290 cp         1 7JD      -0.005000
     10 C3           0.1340     1.6230     0.2450 ca         1 7JD      -0.124000
     11 C9          -3.8150    -1.3340     0.5190 ca         1 7JD      -0.153500
     12 F11         -6.0070    -0.5800    -0.0320 f          1 7JD      -0.177000
     13 O12          2.0080     3.0970     0.4740 oh         1 7JD      -0.526100
     14 C14          2.4350     0.7850     0.0600 ca         1 7JD       0.078400
     15 N15          3.8170     1.0910     0.0900 nc         1 7JD      -0.646100
     16 C16          4.6040     0.0260    -0.1110 cd         1 7JD       0.506800
     17 N17          4.1730    -1.2520    -0.3280 ns         1 7JD      -0.430400
     18 C18          2.8740    -1.6280    -0.3710 c          1 7JD       0.574600
     19 O19          2.5440    -2.7870    -0.5700 o          1 7JD      -0.526000
     20 H1          -2.3780     1.9800    -0.9430 ha         1 7JD       0.121500
     21 H2          -4.8240     1.5760    -0.9550 ha         1 7JD       0.134000
     22 H3          -1.7760    -1.8670     0.9660 ha         1 7JD       0.121500
     23 H4           0.1460    -1.7340    -0.3540 ha         1 7JD       0.141000
     24 H5          -0.5320     2.4630     0.4170 ha         1 7JD       0.136000
     25 H6          -4.2250    -2.2560     0.9240 ha         1 7JD       0.134000
     26 H7           2.9870     2.9880     0.4390 ho         1 7JD       0.497000
     27 H8           5.6840     0.1080    -0.1150 h5         1 7JD       0.049800
     28 H9           4.8490    -1.9880    -0.4700 hn         1 7JD       0.333500
@<TRIPOS>BOND
     1     1    10 ar  
     2     1    13 1   
     3     1    14 ar  
     4     2     3 ar  
     5     2     6 ar  
     6     2     9 1   
     7     3     4 ar  
     8     3    20 1   
     9     4     5 ar  
    10     4    21 1   
    11     5    11 ar  
    12     5    12 1   
    13     6    11 ar  
    14     6    22 1   
    15     7     8 ar  
    16     7    14 ar  
    17     7    18 1   
    18     8     9 ar  
    19     8    23 1   
    20     9    10 ar  
    21    10    24 1   
    22    11    25 1   
    23    13    26 1   
    24    14    15 1   
    25    15    16 2   
    26    16    17 1   
    27    16    27 1   
    28    17    18 1   
    29    17    28 1   
    30    18    19 2   
@<TRIPOS>SUBSTRUCTURE
     1 7JD         1 TEMP              0 ****  ****    0 ROOT
