@<TRIPOS>MOLECULE
7JD
   28    30     1     0     0
SMALL
abcg2


@<TRIPOS>ATOM
      1 C4           1.4900     1.8150     0.2610 ca         1 7JD       0.162100
      2 C5          -1.8410     0.0760     0.0140 cp         1 7JD      -0.056000
      3 C6          -2.7020     1.0340    -0.5240 ca         1 7JD      -0.069500
      4 C7          -4.0740     0.8390    -0.5430 ca         1 7JD      -0.153500
      5 C8          -4.5840    -0.3310    -0.0150 ca         1 7JD       0.177000
      6 C10         -2.3970    -1.0920     0.5370 ca         1 7JD      -0.069500
      7 C13          1.8690    -0.5380    -0.1580 ca         1 7JD      -0.152600
      8 C1           0.4940    -0.7640    -0.1730 ca         1 7JD      -0.078000
      9 C2          -0.3810     0.2920     0.0290 cp         1 7JD      -0.005000
     10 C3           0.1320     1.5810     0.2480 ca         1 7JD      -0.124000
     11 C9          -3.7670    -1.3040     0.5270 ca         1 7JD      -0.153500
     12 F11         -5.9110    -0.5270    -0.0290 f          1 7JD      -0.177000
     13 O12          1.9670     3.0460     0.4760 oh         1 7JD      -0.526100
     14 C14          2.3830     0.7440     0.0560 ca         1 7JD       0.078400
     15 N15          3.7240     1.0350     0.0800 nc         1 7JD      -0.646100
     16 C16          4.5300     0.0580    -0.1130 cd         1 7JD       0.506800
     17 N17          4.1320    -1.2200    -0.3330 ns         1 7JD      -0.430400
     18 C18          2.8160    -1.6300    -0.3770 c          1 7JD       0.574600
     19 O19          2.5180    -2.7920    -0.5790 o          1 7JD      -0.526000
     20 H1          -2.3040     1.9430    -0.9560 ha         1 7JD       0.121500
     21 H2          -4.7330     1.5850    -0.9680 ha         1 7JD       0.134000
     22 H3          -1.7590    -1.8460     0.9810 ha         1 7JD       0.121500
     23 H4           0.1220    -1.7610    -0.3670 ha         1 7JD       0.141000
     24 H5          -0.5420     2.4100     0.4290 ha         1 7JD       0.136000
     25 H6          -4.1900    -2.2090     0.9430 ha         1 7JD       0.134000
     26 H7           2.9360     3.0030     0.4540 ho         1 7JD       0.497000
     27 H8           5.6000     0.2180    -0.1080 h5         1 7JD       0.049800
     28 H9           4.8450    -1.9240    -0.4770 hn         1 7JD       0.333500
@<TRIPOS>BOND
     1     1    10 ar  
     2     1    13 1   
     3     1    14 ar  
     4     2     3 ar  
     5     2     6 ar  
     6     2     9 1   
     7     3     4 ar  
     8     3    20 1   
     9     4     5 ar  
    10     4    21 1   
    11     5    11 ar  
    12     5    12 1   
    13     6    11 ar  
    14     6    22 1   
    15     7     8 ar  
    16     7    14 ar  
    17     7    18 1   
    18     8     9 ar  
    19     8    23 1   
    20     9    10 ar  
    21    10    24 1   
    22    11    25 1   
    23    13    26 1   
    24    14    15 1   
    25    15    16 2   
    26    16    17 1   
    27    16    27 1   
    28    17    18 1   
    29    17    28 1   
    30    18    19 2   
@<TRIPOS>SUBSTRUCTURE
     1 7JD         1 TEMP              0 ****  ****    0 ROOT
