@<TRIPOS>MOLECULE
7JE
   61    65     1     0     0
SMALL
abcg2


@<TRIPOS>ATOM
      1 C4          -4.5320     7.7510    24.1460 ca         1 7JE      -0.095000
      2 C5          -4.0630     7.4310    25.4140 ca         1 7JE      -0.083300
      3 C6          -3.7140     8.4590    26.2910 ca         1 7JE      -0.066000
      4 C8          -3.9560     5.9860    25.8560 c3         1 7JE       0.271900
      5 C10         -7.3030     5.2460    27.5140 ca         1 7JE      -0.128000
      6 C13         -4.5860     5.6410    28.2880 ca         1 7JE      -0.022000
      7 C15         -5.5750     5.4070    29.2570 ca         1 7JE      -0.232900
      8 C20          1.8810    14.1720    24.7750 ca         1 7JE      -0.126000
      9 C21         -0.6150    13.0990    25.4620 ca         1 7JE      -0.151600
     10 C22         -0.4790    14.4390    25.0830 ca         1 7JE      -0.048000
     11 C24          0.8620    16.4250    24.3730 cp         1 7JE      -0.046000
     12 C28          1.7700    12.8460    25.1390 ca         1 7JE       0.033100
     13 C1          -3.8190     9.7910    25.9130 ca         1 7JE      -0.121300
     14 C2          -4.2960    10.1000    24.6350 ca         1 7JE      -0.081000
     15 C3          -4.6520     9.0850    23.7590 ca         1 7JE      -0.117000
     16 O9          -2.6030     5.7580    26.2570 oh         1 7JE      -0.657000
     17 C11         -6.3090     5.4780    26.5880 ca         1 7JE      -0.061000
     18 C12         -4.9570     5.6780    26.9580 ca         1 7JE      -0.164300
     19 C14         -6.9190     5.2130    28.8620 ca         1 7JE      -0.031200
     20 C16         -5.6110     5.3010    30.6740 cc         1 7JE       0.358800
     21 N17         -6.8420     5.0690    31.0990 nd         1 7JE      -0.515100
     22 N18         -7.6360     5.0090    30.0010 na         1 7JE       0.062600
     23 N19         -2.1170    11.4770    26.4870 ns         1 7JE      -0.491900
     24 C23          0.7480    14.9970    24.7450 cp         1 7JE      -0.041000
     25 C25         -2.0030    12.6410    25.8190 c          1 7JE       0.619700
     26 O26         -2.9820    13.3360    25.5270 o          1 7JE      -0.627100
     27 C27          0.5280    12.2950    25.4890 ca         1 7JE       0.149100
     28 O29          2.8190    11.9700    25.1810 oh         1 7JE      -0.565100
     29 O30          0.4720    10.9780    25.8340 oh         1 7JE      -0.548100
     30 C31          1.9920    17.1720    24.7230 ca         1 7JE      -0.075000
     31 C32          2.1020    18.5160    24.3880 ca         1 7JE      -0.146500
     32 C33          1.0620    19.1100    23.6980 ca         1 7JE       0.168000
     33 C34         -0.0730    18.4120    23.3300 ca         1 7JE      -0.146500
     34 C35         -0.1640    17.0690    23.6700 ca         1 7JE      -0.075000
     35 F36          1.1590    20.4250    23.3710 f          1 7JE      -0.182000
     36 C37         -9.0620     4.7950    30.1180 c3         1 7JE       0.082900
     37 H1          -4.8050     6.9590    23.4590 ha         1 7JE       0.108000
     38 H2          -3.3560     8.2140    27.2840 ha         1 7JE       0.118000
     39 H3          -4.1340    11.6930    26.8670 h1         1 7JE       0.065200
     40 H4          -3.3080    10.4950    27.8710 h1         1 7JE       0.065200
     41 H5          -4.1940     5.3530    24.9950 h1         1 7JE       0.040700
     42 H6          -8.3300     5.0950    27.2110 ha         1 7JE       0.121000
     43 H7          -3.5550     5.7930    28.5760 ha         1 7JE       0.126000
     44 H9          -1.3720    15.0460    25.0860 ha         1 7JE       0.148000
     45 H10         -4.3850    11.1360    24.3340 ha         1 7JE       0.129000
     46 H11         -5.0220     9.3280    22.7700 ha         1 7JE       0.114000
     47 H12         -2.5250     4.8380    26.5420 ho         1 7JE       0.444000
     48 H13         -6.5670     5.5110    25.5360 ha         1 7JE       0.114000
     49 H14         -4.8000     5.3840    31.3810 h4         1 7JE       0.050800
     50 H15         -1.2860    10.9240    26.6320 hn         1 7JE       0.338500
     51 H16          3.6510    12.4180    24.9760 ho         1 7JE       0.479000
     52 H17          1.3690    10.6100    25.8270 ho         1 7JE       0.496000
     53 H18          2.7930    16.7080    25.2840 ha         1 7JE       0.120500
     54 H19          2.9720    19.0960    24.6670 ha         1 7JE       0.134000
     55 H20         -0.8620    18.9090    22.7810 ha         1 7JE       0.134000
     56 H21         -1.0400    16.5110    23.3680 ha         1 7JE       0.120500
     57 H22         -9.2820     4.5620    31.1560 h1         1 7JE       0.054367
     58 H23         -9.6130     5.6890    29.8220 h1         1 7JE       0.054367
     59 H24         -9.3700     3.9610    29.4860 h1         1 7JE       0.054367
     60 C7          -3.3980    10.8920    26.8590 c3         1 7JE       0.151300
     61 H8           2.8540    14.5570    24.4950 ha         1 7JE       0.119000
@<TRIPOS>BOND
     1     1     2 ar  
     2     1    15 ar  
     3     1    37 1   
     4     2     3 ar  
     5     2     4 1   
     6     3    13 ar  
     7     3    38 1   
     8     4    16 1   
     9     4    18 1   
    10     4    41 1   
    11     5    17 ar  
    12     5    19 ar  
    13     5    42 1   
    14     6     7 ar  
    15     6    18 ar  
    16     6    43 1   
    17     7    19 ar  
    18     7    20 1   
    19     8    12 ar  
    20     8    24 ar  
    21     8    61 1   
    22     9    10 ar  
    23     9    25 1   
    24     9    27 ar  
    25    10    24 ar  
    26    10    44 1   
    27    11    24 1   
    28    11    30 ar  
    29    11    34 ar  
    30    12    27 ar  
    31    12    28 1   
    32    13    14 ar  
    33    13    60 1   
    34    14    15 ar  
    35    14    45 1   
    36    15    46 1   
    37    16    47 1   
    38    17    18 ar  
    39    17    48 1   
    40    19    22 1   
    41    20    21 2   
    42    20    49 1   
    43    21    22 1   
    44    22    36 1   
    45    23    25 1   
    46    23    50 1   
    47    23    60 1   
    48    25    26 2   
    49    27    29 1   
    50    28    51 1   
    51    29    52 1   
    52    30    31 ar  
    53    30    53 1   
    54    31    32 ar  
    55    31    54 1   
    56    32    33 ar  
    57    32    35 1   
    58    33    34 ar  
    59    33    55 1   
    60    34    56 1   
    61    36    57 1   
    62    36    58 1   
    63    36    59 1   
    64    39    60 1   
    65    40    60 1   
@<TRIPOS>SUBSTRUCTURE
     1 7JE         1 TEMP              0 ****  ****    0 ROOT
