@<TRIPOS>MOLECULE
7JE
   61    65     1     0     0
SMALL
No Charge or Current Charge


@<TRIPOS>ATOM
      1 C4          -5.2110     8.5780    24.8080 ca         1 7JE      -0.095000
      2 C5          -4.3410     8.0500    25.7830 ca         1 7JE      -0.083300
      3 C6          -3.7120     8.9320    26.6900 ca         1 7JE      -0.066000
      4 C8          -4.1160     6.5360    25.8480 c3         1 7JE       0.271900
      5 C10         -7.0560     4.3920    27.1220 ca         1 7JE      -0.128000
      6 C13         -5.0240     6.0740    28.1930 ca         1 7JE      -0.022000
      7 C15         -5.9670     5.4330    29.0060 ca         1 7JE      -0.232900
      8 C20          2.0650    14.0890    24.8190 ca         1 7JE      -0.126000
      9 C21         -0.4570    13.3050    25.8730 ca         1 7JE      -0.151600
     10 C22         -0.2900    14.5400    25.1990 ca         1 7JE      -0.048000
     11 C24          1.0960    16.2650    23.9570 cp         1 7JE      -0.046000
     12 C28          1.9290    12.8610    25.4810 ca         1 7JE       0.033100
     13 C1          -3.9450    10.3200    26.6220 ca         1 7JE      -0.121300
     14 C2          -4.8120    10.8310    25.6390 ca         1 7JE      -0.081000
     15 C3          -5.4440     9.9610    24.7360 ca         1 7JE      -0.117000
     16 O9          -2.7780     6.2190    26.2410 oh         1 7JE      -0.657000
     17 C11         -6.1240     5.0200    26.2670 ca         1 7JE      -0.061000
     18 C12         -5.1040     5.8600    26.7940 ca         1 7JE      -0.164300
     19 C14         -6.9360     4.6310    28.4970 ca         1 7JE      -0.031200
     20 C16         -6.1680     5.4340    30.4350 cc         1 7JE       0.358800
     21 N17         -7.2120     4.6680    30.7950 nd         1 7JE      -0.515100
     22 N18         -7.6720     4.1810    29.5730 na         1 7JE       0.062600
     23 N19         -2.0020    11.7710    27.0560 ns         1 7JE      -0.491900
     24 C23          0.9570    14.9520    24.6650 cp         1 7JE      -0.041000
     25 C25         -1.8410    12.9690    26.4070 c          1 7JE       0.619700
     26 O26         -2.7870    13.7350    26.2690 o          1 7JE      -0.627100
     27 C27          0.6810    12.4650    26.0070 ca         1 7JE       0.149100
     28 O29          3.0150    12.0320    25.6190 oh         1 7JE      -0.565100
     29 O30          0.6460    11.2540    26.6340 oh         1 7JE      -0.548100
     30 C31          2.2730    17.0470    24.0920 ca         1 7JE      -0.075000
     31 C32          2.4050    18.2790    23.4280 ca         1 7JE      -0.146500
     32 C33          1.3630    18.7510    22.6170 ca         1 7JE       0.168000
     33 C34          0.1900    17.9980    22.4650 ca         1 7JE      -0.146500
     34 C35          0.0570    16.7650    23.1290 ca         1 7JE      -0.075000
     35 F36          1.4900    19.9340    21.9790 f          1 7JE      -0.182000
     36 C37         -8.8280     3.2780    29.4550 c3         1 7JE       0.082900
     37 H1          -5.7110     7.9140    24.1060 ha         1 7JE       0.108000
     38 H2          -3.0390     8.5400    27.4490 ha         1 7JE       0.118000
     39 H3          -3.9270    12.0970    27.8480 h1         1 7JE       0.065200
     40 H4          -3.0430    10.7280    28.5370 h1         1 7JE       0.065200
     41 H5          -4.2850     6.1360    24.8390 h1         1 7JE       0.040700
     42 H6          -7.8380     3.7490    26.7230 ha         1 7JE       0.121000
     43 H7          -4.2570     6.7130    28.6260 ha         1 7JE       0.126000
     44 H9          -1.1410    15.2080    25.0960 ha         1 7JE       0.148000
     45 H10         -4.9960    11.9020    25.5750 ha         1 7JE       0.129000
     46 H11         -6.1160    10.3600    23.9790 ha         1 7JE       0.114000
     47 H12         -2.7470     5.2430    26.3270 ho         1 7JE       0.444000
     48 H13         -6.1950     4.8550    25.1940 ha         1 7JE       0.114000
     49 H14         -5.6250     5.9380    31.2240 h4         1 7JE       0.050800
     50 H15         -1.1700    11.1930    27.1190 hn         1 7JE       0.338500
     51 H16          3.7980    12.4550    25.1990 ho         1 7JE       0.479000
     52 H17          1.5680    10.9090    26.5700 ho         1 7JE       0.496000
     53 H18          3.0850    16.7020    24.7280 ha         1 7JE       0.120500
     54 H19          3.3100    18.8700    23.5440 ha         1 7JE       0.134000
     55 H20         -0.6120    18.3670    21.8320 ha         1 7JE       0.134000
     56 H21         -0.8530    16.1870    22.9890 ha         1 7JE       0.120500
     57 H22         -9.2400     3.0650    30.4490 h1         1 7JE       0.054367
     58 H23         -9.6000     3.7510    28.8370 h1         1 7JE       0.054367
     59 H24         -8.5120     2.3380    28.9870 h1         1 7JE       0.054367
     60 C7          -3.2590    11.2610    27.6020 c3         1 7JE       0.151300
     61 H8           3.0300    14.3740    24.4070 ha         1 7JE       0.119000
@<TRIPOS>BOND
     1     1     2 ar  
     2     1    15 ar  
     3     1    37 1   
     4     2     3 ar  
     5     2     4 1   
     6     3    13 ar  
     7     3    38 1   
     8     4    16 1   
     9     4    18 1   
    10     4    41 1   
    11     5    17 ar  
    12     5    19 ar  
    13     5    42 1   
    14     6     7 ar  
    15     6    18 ar  
    16     6    43 1   
    17     7    19 ar  
    18     7    20 1   
    19     8    12 ar  
    20     8    24 ar  
    21     8    61 1   
    22     9    10 ar  
    23     9    25 1   
    24     9    27 ar  
    25    10    24 ar  
    26    10    44 1   
    27    11    24 1   
    28    11    30 ar  
    29    11    34 ar  
    30    12    27 ar  
    31    12    28 1   
    32    13    14 ar  
    33    13    60 1   
    34    14    15 ar  
    35    14    45 1   
    36    15    46 1   
    37    16    47 1   
    38    17    18 ar  
    39    17    48 1   
    40    19    22 1   
    41    20    21 2   
    42    20    49 1   
    43    21    22 1   
    44    22    36 1   
    45    23    25 1   
    46    23    50 1   
    47    23    60 1   
    48    25    26 2   
    49    27    29 1   
    50    28    51 1   
    51    29    52 1   
    52    30    31 ar  
    53    30    53 1   
    54    31    32 ar  
    55    31    54 1   
    56    32    33 ar  
    57    32    35 1   
    58    33    34 ar  
    59    33    55 1   
    60    34    56 1   
    61    36    57 1   
    62    36    58 1   
    63    36    59 1   
    64    39    60 1   
    65    40    60 1   
@<TRIPOS>SUBSTRUCTURE
     1 7JE         1 TEMP              0 ****  ****    0 ROOT
