@<TRIPOS>MOLECULE
7JF
   38    41     1     0     0
SMALL
No Charge or Current Charge


@<TRIPOS>ATOM
      1 C10         -4.1810    16.2050    24.0920 ca         1 7JF       0.174000
      2 C15          0.8440    12.7300    26.5520 ca         1 7JF       0.105400
      3 C17         -1.6340    12.4550    26.5750 c          1 7JF       0.573600
      4 C22          0.1680    16.6440    23.1700 ca         1 7JF      -0.060000
      5 C24          0.7090    19.0110    23.0800 ca         1 7JF       0.174000
      6 C26          1.3220    17.7010    25.0330 ca         1 7JF      -0.060000
      7 C01          1.9990    14.6920    25.6000 ca         1 7JF       0.169000
      8 C02          0.7650    15.2330    25.1920 cp         1 7JF      -0.046000
      9 C03         -0.4690    14.4840    25.4690 cq         1 7JF       0.032000
     10 C04          2.0310    13.4500    26.2640 ca         1 7JF       0.113100
     11 O05          3.2220    12.8970    26.6580 oh         1 7JF      -0.508100
     12 C07         -1.7790    15.0590    25.0140 cq         1 7JF      -0.054000
     13 C08         -2.5120    14.4410    23.9780 ca         1 7JF      -0.057000
     14 C09         -3.7130    15.0130    23.5220 ca         1 7JF      -0.146000
     15 C11         -3.4540    16.8340    25.1120 ca         1 7JF      -0.146000
     16 C12         -2.2520    16.2660    25.5700 ca         1 7JF      -0.057000
     17 F13         -5.3340    16.7540    23.6510 f          1 7JF      -0.184000
     18 C14          0.7540    16.5370    24.4560 cp         1 7JF      -0.059000
     19 C16         -0.4240    13.2470    26.1710 ca         1 7JF      -0.156600
     20 N18         -1.3540    11.2850    27.1910 ns         1 7JF      -0.436400
     21 C19         -0.1010    10.8380    27.4970 cc         1 7JF       0.517800
     22 N20          1.0250    11.4990    27.2280 nd         1 7JF      -0.655100
     23 O21         -2.7950    12.7930    26.4110 o          1 7JF      -0.509000
     24 C23          0.1440    17.8730    22.4870 ca         1 7JF      -0.148500
     25 C25          1.2990    18.9300    24.3490 ca         1 7JF      -0.148500
     26 H1          -0.2660    15.7650    22.7000 ha         1 7JF       0.122500
     27 H2           1.7730    17.6490    26.0210 ha         1 7JF       0.122500
     28 H3           2.9640    12.0480    27.0910 ho         1 7JF       0.497000
     29 H4          -2.1530    13.5210    23.5230 ha         1 7JF       0.118500
     30 H5          -4.2790    14.5340    22.7280 ha         1 7JF       0.133500
     31 H6          -3.8180    17.7630    25.5440 ha         1 7JF       0.133500
     32 H7          -1.6900    16.7670    26.3550 ha         1 7JF       0.118500
     33 H8          -2.1480    10.7250    27.4630 hn         1 7JF       0.336500
     34 H9          -0.1110     9.8810    28.0030 h5         1 7JF       0.054800
     35 H10         -0.3090    17.9420    21.5020 ha         1 7JF       0.135000
     36 H11          1.7340    19.8170    24.8030 ha         1 7JF       0.135000
     37 F06          3.1610    15.3390    25.3320 f          1 7JF      -0.154000
     38 F27          0.6860    20.1920    22.4240 f          1 7JF      -0.181000
@<TRIPOS>BOND
     1     1    14 ar  
     2     1    15 ar  
     3     1    17 1   
     4     2    10 ar  
     5     2    19 ar  
     6     2    22 1   
     7     3    19 1   
     8     3    20 1   
     9     3    23 2   
    10     4    18 ar  
    11     4    24 ar  
    12     4    26 1   
    13     5    24 ar  
    14     5    25 ar  
    15     5    38 1   
    16     6    18 ar  
    17     6    25 ar  
    18     6    27 1   
    19     7     8 ar  
    20     7    10 ar  
    21     7    37 1   
    22     8     9 2   
    23     8    18 1   
    24     9    12 1   
    25     9    19 1   
    26    10    11 1   
    27    11    28 1   
    28    12    13 1   
    29    12    16 2   
    30    13    14 ar  
    31    13    29 1   
    32    14    30 1   
    33    15    16 ar  
    34    15    31 1   
    35    16    32 1   
    36    20    21 1   
    37    20    33 1   
    38    21    22 2   
    39    21    34 1   
    40    24    35 1   
    41    25    36 1   
@<TRIPOS>SUBSTRUCTURE
     1 7JF         1 TEMP              0 ****  ****    0 ROOT
