@<TRIPOS>MOLECULE
7JF
   38    41     1     0     0
SMALL
abcg2


@<TRIPOS>ATOM
      1 C10         -4.1030    16.2440    24.0770 ca         1 7JF       0.174000
      2 C15          0.8350    12.7250    26.5120 ca         1 7JF       0.105400
      3 C17         -1.6090    12.5650    26.6480 c          1 7JF       0.573600
      4 C22          0.2620    16.5790    23.1150 ca         1 7JF      -0.060000
      5 C24          0.6660    18.9260    23.1550 ca         1 7JF       0.174000
      6 C26          1.1450    17.6280    25.0910 ca         1 7JF      -0.060000
      7 C01          1.9240    14.6020    25.5140 ca         1 7JF       0.169000
      8 C02          0.7020    15.1720    25.1470 cp         1 7JF      -0.046000
      9 C03         -0.4850    14.5020    25.4630 cq         1 7JF       0.032000
     10 C04          2.0230    13.3950    26.1710 ca         1 7JF       0.113100
     11 O05          3.2280    12.8740    26.4830 oh         1 7JF      -0.508100
     12 C07         -1.7750    15.0920    25.0120 cq         1 7JF      -0.054000
     13 C08         -2.4790    14.5100    23.9580 ca         1 7JF      -0.057000
     14 C09         -3.6500    15.0820    23.4800 ca         1 7JF      -0.146000
     15 C11         -3.4350    16.8520    25.1230 ca         1 7JF      -0.146000
     16 C12         -2.2610    16.2660    25.5830 ca         1 7JF      -0.057000
     17 F13         -5.2480    16.8110    23.6140 f          1 7JF      -0.184000
     18 C14          0.7070    16.4780    24.4330 cp         1 7JF      -0.059000
     19 C16         -0.4180    13.2810    26.1710 ca         1 7JF      -0.156600
     20 N18         -1.3130    11.3660    27.2920 ns         1 7JF      -0.436400
     21 C19         -0.0620    10.9030    27.5350 cc         1 7JF       0.517800
     22 N20          1.0060    11.5310    27.1840 nd         1 7JF      -0.655100
     23 O21         -2.7750    12.9190    26.5530 o          1 7JF      -0.509000
     24 C23          0.2380    17.8070    22.4640 ca         1 7JF      -0.148500
     25 C25          1.1250    18.8640    24.4580 ca         1 7JF      -0.148500
     26 H1          -0.0770    15.6950    22.5930 ha         1 7JF       0.122500
     27 H2           1.4910    17.5610    26.1140 ha         1 7JF       0.122500
     28 H3           3.0540    12.0310    26.9410 ho         1 7JF       0.497000
     29 H4          -2.1030    13.6030    23.5020 ha         1 7JF       0.118500
     30 H5          -4.2010    14.6410    22.6600 ha         1 7JF       0.133500
     31 H6          -3.8210    17.7630    25.5600 ha         1 7JF       0.133500
     32 H7          -1.7170    16.7330    26.3940 ha         1 7JF       0.118500
     33 H8          -2.1070    10.8340    27.6270 hn         1 7JF       0.336500
     34 H9           0.0000     9.9570    28.0600 h5         1 7JF       0.054800
     35 H10         -0.1040    17.8960    21.4420 ha         1 7JF       0.135000
     36 H11          1.4530    19.7630    24.9620 ha         1 7JF       0.135000
     37 F06          3.0710    15.2330    25.1890 f          1 7JF      -0.154000
     38 F27          0.6380    20.1320    22.5320 f          1 7JF      -0.181000
@<TRIPOS>BOND
     1     1    14 ar  
     2     1    15 ar  
     3     1    17 1   
     4     2    10 ar  
     5     2    19 ar  
     6     2    22 1   
     7     3    19 1   
     8     3    20 1   
     9     3    23 2   
    10     4    18 ar  
    11     4    24 ar  
    12     4    26 1   
    13     5    24 ar  
    14     5    25 ar  
    15     5    38 1   
    16     6    18 ar  
    17     6    25 ar  
    18     6    27 1   
    19     7     8 ar  
    20     7    10 ar  
    21     7    37 1   
    22     8     9 2   
    23     8    18 1   
    24     9    12 1   
    25     9    19 1   
    26    10    11 1   
    27    11    28 1   
    28    12    13 1   
    29    12    16 2   
    30    13    14 ar  
    31    13    29 1   
    32    14    30 1   
    33    15    16 ar  
    34    15    31 1   
    35    16    32 1   
    36    20    21 1   
    37    20    33 1   
    38    21    22 2   
    39    21    34 1   
    40    24    35 1   
    41    25    36 1   
@<TRIPOS>SUBSTRUCTURE
     1 7JF         1 TEMP              0 ****  ****    0 ROOT
