@<TRIPOS>MOLECULE
7JG
   38    41     1     0     0
SMALL
abcg2


@<TRIPOS>ATOM
      1 C4          -0.4460    14.5350    25.3710 cp         1 7JG       0.003000
      2 C5           1.9830    14.6890    25.4560 ca         1 7JG      -0.118000
      3 C7           0.7410    15.2100    25.0610 cq         1 7JG      -0.003000
      4 C8          -1.7460    15.1000    24.9130 cp         1 7JG      -0.049000
      5 C10          1.3690    18.8450    24.2410 ca         1 7JG      -0.148500
      6 C13          0.7460    16.5000    24.3210 cq         1 7JG      -0.061000
      7 C15          0.1950    17.8390    22.3750 ca         1 7JG      -0.148500
      8 C17          0.0090    10.9790    27.5190 cc         1 7JG       0.510800
      9 C21         -2.2320    16.2880    25.4560 ca         1 7JG      -0.059500
     10 C22         -3.4090    16.8600    24.9860 ca         1 7JG      -0.146500
     11 C24         -3.6310    15.0450    23.3940 ca         1 7JG      -0.146500
     12 C1           0.8890    12.8000    26.4770 ca         1 7JG       0.083400
     13 C2          -0.3660    13.3310    26.1090 ca         1 7JG      -0.135600
     14 C3           2.0670    13.4980    26.1400 ca         1 7JG       0.156100
     15 O6           3.2690    12.9890    26.4940 oh         1 7JG      -0.527100
     16 C9           1.3480    17.6200    24.8990 ca         1 7JG      -0.067500
     17 C11          0.7860    18.9280    22.9910 ca         1 7JG       0.171000
     18 C12          0.1780    16.6250    23.0510 ca         1 7JG      -0.067500
     19 F14          0.7940    20.1220    22.3450 f          1 7JG      -0.182000
     20 N16          1.0690    11.6200    27.1700 nd         1 7JG      -0.653100
     21 N18         -1.2470    11.4210    27.2540 ns         1 7JG      -0.436400
     22 C19         -1.5520    12.6060    26.5910 c          1 7JG       0.569600
     23 O20         -2.7230    12.9430    26.4840 o          1 7JG      -0.513000
     24 C23         -4.0820    16.2240    23.9610 ca         1 7JG       0.170000
     25 C25         -2.4570    14.4880    23.8820 ca         1 7JG      -0.059500
     26 F26         -5.2280    16.7800    23.4850 f          1 7JG      -0.185000
     27 H1           2.8930    15.2160    25.2000 ha         1 7JG       0.140000
     28 H3          -0.2390    17.9400    21.3890 ha         1 7JG       0.135000
     29 H4           0.0780    10.0420    28.0590 h5         1 7JG       0.052800
     30 H5          -1.6830    16.7770    26.2500 ha         1 7JG       0.118500
     31 H6          -3.7940    17.7820    25.4010 ha         1 7JG       0.132500
     32 H7          -4.1870    14.5820    22.5900 ha         1 7JG       0.132500
     33 H8           3.0940    12.1510    26.9590 ho         1 7JG       0.496000
     34 H9           1.7910    17.5410    25.8830 ha         1 7JG       0.122500
     35 H10         -0.2810    15.7680    22.5810 ha         1 7JG       0.122500
     36 H11         -2.0370    10.8850    27.5910 hn         1 7JG       0.334500
     37 H12         -2.0850    13.5680    23.4490 ha         1 7JG       0.118500
     38 H2           1.8250    19.7180    24.6880 ha         1 7JG       0.135000
@<TRIPOS>BOND
     1     1     3 1   
     2     1     4 1   
     3     1    13 ar  
     4     2     3 2   
     5     2    14 ar  
     6     2    27 1   
     7     3     6 1   
     8     4     9 ar  
     9     4    25 ar  
    10     5    16 ar  
    11     5    17 ar  
    12     5    38 1   
    13     6    16 2   
    14     6    18 1   
    15     7    17 ar  
    16     7    18 ar  
    17     7    28 1   
    18     8    20 2   
    19     8    21 1   
    20     8    29 1   
    21     9    10 ar  
    22     9    30 1   
    23    10    24 ar  
    24    10    31 1   
    25    11    24 ar  
    26    11    25 ar  
    27    11    32 1   
    28    12    13 ar  
    29    12    14 ar  
    30    12    20 1   
    31    13    22 1   
    32    14    15 1   
    33    15    33 1   
    34    16    34 1   
    35    17    19 1   
    36    18    35 1   
    37    21    22 1   
    38    21    36 1   
    39    22    23 2   
    40    24    26 1   
    41    25    37 1   
@<TRIPOS>SUBSTRUCTURE
     1 7JG         1 TEMP              0 ****  ****    0 ROOT
