@<TRIPOS>MOLECULE
7JG
   38    41     1     0     0
SMALL
No Charge or Current Charge


@<TRIPOS>ATOM
      1 C4          -0.4480    14.5050    25.3690 cp         1 7JG       0.003000
      2 C5           2.0290    14.7640    25.5230 ca         1 7JG      -0.118000
      3 C7           0.7900    15.2550    25.0870 cq         1 7JG      -0.003000
      4 C8          -1.7580    15.0630    24.9150 cp         1 7JG      -0.049000
      5 C10          1.5290    18.8830    24.1330 ca         1 7JG      -0.148500
      6 C13          0.8050    16.5540    24.3260 cq         1 7JG      -0.061000
      7 C15          0.1510    17.9010    22.3920 ca         1 7JG      -0.148500
      8 C17         -0.0350    10.9350    27.5050 cc         1 7JG       0.510800
      9 C21         -2.2580    16.2650    25.4730 ca         1 7JG      -0.059500
     10 C22         -3.4660    16.8220    25.0180 ca         1 7JG      -0.146500
     11 C24         -3.7030    15.0020    23.4190 ca         1 7JG      -0.146500
     12 C1           0.9160    12.8000    26.5200 ca         1 7JG       0.083400
     13 C2          -0.3480    13.2870    26.1130 ca         1 7JG      -0.135600
     14 C3           2.0800    13.5470    26.2180 ca         1 7JG       0.156100
     15 O6           3.2850    13.0570    26.6280 oh         1 7JG      -0.527100
     16 C9           1.5130    17.6650    24.8360 ca         1 7JG      -0.067500
     17 C11          0.8460    18.9980    22.9150 ca         1 7JG       0.171000
     18 C12          0.1320    16.6810    23.0910 ca         1 7JG      -0.067500
     19 F14          0.8640    20.1690    22.2420 f          1 7JG      -0.182000
     20 N16          1.0960    11.5910    27.2350 nd         1 7JG      -0.653100
     21 N18         -1.2900    11.3660    27.1710 ns         1 7JG      -0.436400
     22 C19         -1.5730    12.5160    26.5160 c          1 7JG       0.569600
     23 O20         -2.7350    12.8410    26.3290 o          1 7JG      -0.513000
     24 C23         -4.1850    16.1870    23.9950 ca         1 7JG       0.170000
     25 C25         -2.4940    14.4450    23.8730 ca         1 7JG      -0.059500
     26 F26         -5.3450    16.7230    23.5560 f          1 7JG      -0.185000
     27 H1           2.9520    15.2970    25.3140 ha         1 7JG       0.140000
     28 H3          -0.3710    17.9940    21.4420 ha         1 7JG       0.135000
     29 H4          -0.0480     9.9920    28.0400 h5         1 7JG       0.052800
     30 H5          -1.6980    16.7660    26.2600 ha         1 7JG       0.118500
     31 H6          -3.8420    17.7430    25.4550 ha         1 7JG       0.132500
     32 H7          -4.2620    14.5190    22.6220 ha         1 7JG       0.132500
     33 H8           3.0590    12.2130    27.0860 ho         1 7JG       0.496000
     34 H9           2.0400    17.5960    25.7850 ha         1 7JG       0.122500
     35 H10         -0.3980    15.8360    22.6590 ha         1 7JG       0.122500
     36 H11         -2.0830    10.8080    27.4510 hn         1 7JG       0.334500
     37 H12         -2.1180    13.5320    23.4190 ha         1 7JG       0.118500
     38 H2           2.0690    19.7370    24.5340 ha         1 7JG       0.135000
@<TRIPOS>BOND
     1     1     3 1   
     2     1     4 1   
     3     1    13 ar  
     4     2     3 2   
     5     2    14 ar  
     6     2    27 1   
     7     3     6 1   
     8     4     9 ar  
     9     4    25 ar  
    10     5    16 ar  
    11     5    17 ar  
    12     5    38 1   
    13     6    16 2   
    14     6    18 1   
    15     7    17 ar  
    16     7    18 ar  
    17     7    28 1   
    18     8    20 2   
    19     8    21 1   
    20     8    29 1   
    21     9    10 ar  
    22     9    30 1   
    23    10    24 ar  
    24    10    31 1   
    25    11    24 ar  
    26    11    25 ar  
    27    11    32 1   
    28    12    13 ar  
    29    12    14 ar  
    30    12    20 1   
    31    13    22 1   
    32    14    15 1   
    33    15    33 1   
    34    16    34 1   
    35    17    19 1   
    36    18    35 1   
    37    21    22 1   
    38    21    36 1   
    39    22    23 2   
    40    24    26 1   
    41    25    37 1   
@<TRIPOS>SUBSTRUCTURE
     1 7JG         1 TEMP              0 ****  ****    0 ROOT
