@<TRIPOS>MOLECULE
7JH
   30    32     1     0     0
SMALL
abcg2


@<TRIPOS>ATOM
      1 C4          -0.3500     0.3470     0.0400 ca         1 7JH       0.025000
      2 C5           0.2190     1.6120    -0.1910 ca         1 7JH      -0.118000
      3 C6           1.5870     1.7710    -0.2550 ca         1 7JH       0.161100
      4 C8           4.5390    -0.1560    -0.0650 cc         1 7JH       0.506800
      5 C10          2.7500    -1.7550     0.2470 c          1 7JH       0.575600
      6 C17         -2.4590     2.2500     1.5080 c3         1 7JH      -0.124400
      7 C1           2.4280     0.6490    -0.1120 ca         1 7JH       0.079400
      8 C2           1.8560    -0.6080     0.1010 ca         1 7JH      -0.152600
      9 C3           0.4730    -0.7600     0.1810 ca         1 7JH      -0.079000
     10 N7           3.7800     0.8680    -0.1960 nd         1 7JH      -0.646100
     11 N9           4.0830    -1.4150     0.1480 ns         1 7JH      -0.430400
     12 O11          2.3980    -2.9020     0.4390 o          1 7JH      -0.524000
     13 C12         -1.8040     0.2110     0.1110 cc         1 7JH      -0.195000
     14 S13         -2.6110    -1.1230    -0.6360 ss         1 7JH      -0.032400
     15 C14         -2.7330     1.0120     0.7200 cd         1 7JH       0.317300
     16 N15         -4.0270     0.5850     0.5960 nd         1 7JH      -0.651000
     17 C16         -4.1250    -0.5120    -0.0830 cc         1 7JH       0.445700
     18 C18         -5.4060    -1.1950    -0.4110 c3         1 7JH      -0.130400
     19 O19          2.1190     2.9790    -0.4680 oh         1 7JH      -0.525100
     20 H1          -0.4200     2.4730    -0.3400 ha         1 7JH       0.139000
     21 H2           5.6150    -0.0520    -0.1190 h5         1 7JH       0.049800
     22 H3          -2.5610     3.1460     0.8920 hc         1 7JH       0.053367
     23 H4          -3.1720     2.3350     2.3270 hc         1 7JH       0.053367
     24 H5          -1.4550     2.2520     1.9280 hc         1 7JH       0.053367
     25 H6           0.0550    -1.7400     0.3730 ha         1 7JH       0.144000
     26 H7           4.7630    -2.1590     0.2410 hn         1 7JH       0.333500
     27 H8          -5.7880    -0.8550    -1.3760 hc         1 7JH       0.059367
     28 H9          -5.2880    -2.2760    -0.4650 hc         1 7JH       0.059367
     29 H10         -6.1530    -0.9630     0.3460 hc         1 7JH       0.059367
     30 H11          3.0840     2.8840    -0.4900 ho         1 7JH       0.496000
@<TRIPOS>BOND
     1     1     2 ar  
     2     1     9 ar  
     3     1    13 1   
     4     2     3 ar  
     5     2    20 1   
     6     3     7 ar  
     7     3    19 1   
     8     4    10 2   
     9     4    11 1   
    10     4    21 1   
    11     5     8 1   
    12     5    11 1   
    13     5    12 2   
    14     6    15 1   
    15     6    22 1   
    16     6    23 1   
    17     6    24 1   
    18     7     8 ar  
    19     7    10 1   
    20     8     9 ar  
    21     9    25 1   
    22    11    26 1   
    23    13    14 1   
    24    13    15 2   
    25    14    17 1   
    26    15    16 1   
    27    16    17 2   
    28    17    18 1   
    29    18    27 1   
    30    18    28 1   
    31    18    29 1   
    32    19    30 1   
@<TRIPOS>SUBSTRUCTURE
     1 7JH         1 TEMP              0 ****  ****    0 ROOT
