@<TRIPOS>MOLECULE
7JH
   30    32     1     0     0
SMALL
No Charge or Current Charge


@<TRIPOS>ATOM
      1 C4          -0.4070     0.3670    -0.0710 ca         1 7JH       0.025000
      2 C5           0.1390     1.6330    -0.3500 ca         1 7JH      -0.118000
      3 C6           1.5300     1.8050    -0.3940 ca         1 7JH       0.161100
      4 C8           4.5670    -0.0990    -0.0120 cc         1 7JH       0.506800
      5 C10          2.7840    -1.6900     0.3280 c          1 7JH       0.575600
      6 C17         -2.2970     2.0210     1.7150 c3         1 7JH      -0.124400
      7 C1           2.4100     0.7230    -0.1700 ca         1 7JH       0.079400
      8 C2           1.8600    -0.5470     0.0970 ca         1 7JH      -0.152600
      9 C3           0.4580    -0.7210     0.1410 ca         1 7JH      -0.079000
     10 N7           3.8020     0.9750    -0.2310 nd         1 7JH      -0.646100
     11 N9           4.0930    -1.3580     0.2520 ns         1 7JH      -0.430400
     12 O11          2.4190    -2.8310     0.5660 o          1 7JH      -0.524000
     13 C12         -1.8530     0.1630    -0.0320 cc         1 7JH      -0.195000
     14 S13         -2.7010    -1.0840    -0.8910 ss         1 7JH      -0.032400
     15 C14         -2.6870     0.9100     0.7780 cd         1 7JH       0.317300
     16 N15         -4.0220     0.5420     0.6940 nd         1 7JH      -0.651000
     17 C16         -4.1590    -0.4730    -0.1500 cc         1 7JH       0.445700
     18 C18         -5.4850    -1.1050    -0.4530 c3         1 7JH      -0.130400
     19 O19          2.0580     3.0340    -0.6620 oh         1 7JH      -0.525100
     20 H1          -0.5110     2.4810    -0.5430 ha         1 7JH       0.139000
     21 H2           5.6490    -0.0570    -0.0270 h5         1 7JH       0.049800
     22 H3          -2.2200     2.9750     1.1810 hc         1 7JH       0.053367
     23 H4          -3.0380     2.1460     2.5140 hc         1 7JH       0.053367
     24 H5          -1.3320     1.8180     2.1930 hc         1 7JH       0.053367
     25 H6           0.0390    -1.7030     0.3480 ha         1 7JH       0.144000
     26 H7           4.7530    -2.1060     0.4040 hn         1 7JH       0.333500
     27 H8          -5.5650    -1.3490    -1.5180 hc         1 7JH       0.059367
     28 H9          -5.6090    -2.0300     0.1200 hc         1 7JH       0.059367
     29 H10         -6.3110    -0.4310    -0.1980 hc         1 7JH       0.059367
     30 H11          3.0330     2.8930    -0.6380 ho         1 7JH       0.496000
@<TRIPOS>BOND
     1     1     2 ar  
     2     1     9 ar  
     3     1    13 1   
     4     2     3 ar  
     5     2    20 1   
     6     3     7 ar  
     7     3    19 1   
     8     4    10 2   
     9     4    11 1   
    10     4    21 1   
    11     5     8 1   
    12     5    11 1   
    13     5    12 2   
    14     6    15 1   
    15     6    22 1   
    16     6    23 1   
    17     6    24 1   
    18     7     8 ar  
    19     7    10 1   
    20     8     9 ar  
    21     9    25 1   
    22    11    26 1   
    23    13    14 1   
    24    13    15 2   
    25    14    17 1   
    26    15    16 1   
    27    16    17 2   
    28    17    18 1   
    29    18    27 1   
    30    18    28 1   
    31    18    29 1   
    32    19    30 1   
@<TRIPOS>SUBSTRUCTURE
     1 7JH         1 TEMP              0 ****  ****    0 ROOT
