@<TRIPOS>MOLECULE
7JJ
   28    30     1     0     0
SMALL
abcg2


@<TRIPOS>ATOM
      1 C4          40.9060   -40.4720     2.7820 ca         1 7JJ       0.151000
      2 C5          41.9440   -40.7920     0.6280 ca         1 7JJ      -0.112000
      3 C7          41.6480   -39.9600     1.7180 cp         1 7JJ      -0.008000
      4 C10         41.7730   -36.1780     1.5680 ca         1 7JJ      -0.149500
      5 C13         42.1600   -38.5670     1.6780 cp         1 7JJ      -0.061000
      6 C15         44.0380   -37.0420     1.5060 ca         1 7JJ      -0.149500
      7 C17         39.6380   -44.4340     2.4580 cc         1 7JJ       0.516800
      8 C1          40.7360   -42.6130     1.6470 ca         1 7JJ       0.092400
      9 C2          40.4320   -41.8010     2.7640 ca         1 7JJ      -0.142600
     10 C3          41.5020   -42.0940     0.5840 ca         1 7JJ       0.154100
     11 O6          41.7910   -42.8800    -0.4770 oh         1 7JJ      -0.525100
     12 CL8         40.6350   -39.4350     4.1620 cl         1 7JJ      -0.163000
     13 C9          41.2880   -37.4760     1.6640 ca         1 7JJ      -0.061500
     14 C11         43.1420   -35.9900     1.4940 ca         1 7JJ       0.173000
     15 C12         43.5340   -38.3350     1.5930 ca         1 7JJ      -0.061500
     16 F14         43.6230   -34.7240     1.3990 f          1 7JJ      -0.182000
     17 N16         40.3330   -43.9240     1.5030 nd         1 7JJ      -0.657100
     18 N18         39.2950   -43.7460     3.5740 ns         1 7JJ      -0.435400
     19 C19         39.6350   -42.4210     3.8360 c          1 7JJ       0.574600
     20 O20         39.2600   -41.9080     4.8790 o          1 7JJ      -0.504000
     21 H1          42.5190   -40.3970    -0.1990 ha         1 7JJ       0.143000
     22 H3          45.1010   -36.8530     1.4480 ha         1 7JJ       0.135000
     23 H4          39.2890   -45.4590     2.4060 h5         1 7JJ       0.053800
     24 H5          41.3780   -43.7470    -0.3060 ho         1 7JJ       0.497000
     25 H6          40.2210   -37.6410     1.7170 ha         1 7JJ       0.124000
     26 H7          44.2190   -39.1730     1.6020 ha         1 7JJ       0.124000
     27 H8          38.7420   -44.2070     4.2860 hn         1 7JJ       0.336500
     28 H2          41.1060   -35.3270     1.5470 ha         1 7JJ       0.135000
@<TRIPOS>BOND
     1     1     3 ar  
     2     1     9 ar  
     3     1    12 1   
     4     2     3 ar  
     5     2    10 ar  
     6     2    21 1   
     7     3     5 1   
     8     4    13 ar  
     9     4    14 ar  
    10     4    28 1   
    11     5    13 ar  
    12     5    15 ar  
    13     6    14 ar  
    14     6    15 ar  
    15     6    22 1   
    16     7    17 2   
    17     7    18 1   
    18     7    23 1   
    19     8     9 ar  
    20     8    10 ar  
    21     8    17 1   
    22     9    19 1   
    23    10    11 1   
    24    11    24 1   
    25    13    25 1   
    26    14    16 1   
    27    15    26 1   
    28    18    19 1   
    29    18    27 1   
    30    19    20 2   
@<TRIPOS>SUBSTRUCTURE
     1 7JJ         1 TEMP              0 ****  ****    0 ROOT
