@<TRIPOS>MOLECULE
7JJ
   28    30     1     0     0
SMALL
No Charge or Current Charge


@<TRIPOS>ATOM
      1 C4          40.8950   -40.4850     2.7460 ca         1 7JJ       0.151000
      2 C5          41.9790   -40.8200     0.5870 ca         1 7JJ      -0.112000
      3 C7          41.6700   -39.9690     1.6670 cp         1 7JJ      -0.008000
      4 C10         41.7770   -36.1410     1.6430 ca         1 7JJ      -0.149500
      5 C13         42.1770   -38.5640     1.6410 cp         1 7JJ      -0.061000
      6 C15         44.0520   -36.9870     1.4810 ca         1 7JJ      -0.149500
      7 C17         39.6070   -44.4700     2.5040 cc         1 7JJ       0.516800
      8 C1          40.7430   -42.6610     1.6170 ca         1 7JJ       0.092400
      9 C2          40.4240   -41.8320     2.7220 ca         1 7JJ      -0.142600
     10 C3          41.5220   -42.1380     0.5640 ca         1 7JJ       0.154100
     11 O6          41.8260   -42.9460    -0.4910 oh         1 7JJ      -0.525100
     12 Cl8         40.5840   -39.4170     4.1270 cl         1 7JJ      -0.163000
     13 C9          41.2900   -37.4590     1.6880 ca         1 7JJ      -0.061500
     14 C11         43.1560   -35.9090     1.5430 ca         1 7JJ       0.173000
     15 C12         43.5650   -38.3050     1.5260 ca         1 7JJ      -0.061500
     16 F14         43.6240   -34.6430     1.4990 f          1 7JJ      -0.182000
     17 N16         40.3350   -44.0110     1.4870 nd         1 7JJ      -0.657100
     18 N18         39.2590   -43.7360     3.6010 ns         1 7JJ      -0.435400
     19 C19         39.5970   -42.4430     3.8150 c          1 7JJ       0.574600
     20 O20         39.2230   -41.8810     4.8310 o          1 7JJ      -0.504000
     21 H1          42.5720   -40.4460    -0.2430 ha         1 7JJ       0.143000
     22 H3          45.1200   -36.8000     1.3990 ha         1 7JJ       0.135000
     23 H4          39.2250   -45.4840     2.5410 h5         1 7JJ       0.053800
     24 H5          41.3950   -43.8060    -0.2710 ho         1 7JJ       0.497000
     25 H6          40.2170   -37.6310     1.7540 ha         1 7JJ       0.124000
     26 H7          44.2660   -39.1360     1.4780 ha         1 7JJ       0.124000
     27 H8          38.7020   -44.1730     4.3200 hn         1 7JJ       0.336500
     28 H2          41.0880   -35.3010     1.6830 ha         1 7JJ       0.135000
@<TRIPOS>BOND
     1     1     3 ar  
     2     1     9 ar  
     3     1    12 1   
     4     2     3 ar  
     5     2    10 ar  
     6     2    21 1   
     7     3     5 1   
     8     4    13 ar  
     9     4    14 ar  
    10     4    28 1   
    11     5    13 ar  
    12     5    15 ar  
    13     6    14 ar  
    14     6    15 ar  
    15     6    22 1   
    16     7    17 2   
    17     7    18 1   
    18     7    23 1   
    19     8     9 ar  
    20     8    10 ar  
    21     8    17 1   
    22     9    19 1   
    23    10    11 1   
    24    11    24 1   
    25    13    25 1   
    26    14    16 1   
    27    15    26 1   
    28    18    19 1   
    29    18    27 1   
    30    19    20 2   
@<TRIPOS>SUBSTRUCTURE
     1 7JJ         1 TEMP              0 ****  ****    0 ROOT
