@<TRIPOS>MOLECULE
7JK
   47    50     1     0     0
SMALL
No Charge or Current Charge


@<TRIPOS>ATOM
      1 C4          -3.3710     1.2440     0.1150 c          1 7JK       0.641700
      2 C5           0.2250     1.7960     1.0940 cc         1 7JK      -0.085300
      3 C6           0.5690     0.5840     0.5160 cd         1 7JK      -0.166000
      4 C8           1.1090     2.8050     1.7860 c3         1 7JK      -0.032800
      5 C13          3.3020    -1.9390    -0.2750 ca         1 7JK       0.164100
      6 C15          4.3570     0.2160    -0.0060 ca         1 7JK      -0.155600
      7 C22         -3.8850    -1.2680     0.1170 c6         1 7JK       0.093500
      8 C26         -5.3720     0.2970    -1.1140 c6         1 7JK       0.093500
      9 C1          -1.9210     1.0720     0.4220 cd         1 7JK      -0.283600
     10 C2          -1.1720     2.0500     1.0220 cc         1 7JK      -0.081000
     11 S3          -0.8740    -0.2430    -0.1270 ss         1 7JK       0.251000
     12 O7          -3.9240     2.3270     0.2520 o          1 7JK      -0.583100
     13 C9           1.9150     0.0080     0.2540 ca         1 7JK       0.014000
     14 N10          6.7180     0.3540    -0.2700 ns         1 7JK      -0.430400
     15 C12          2.0450    -1.3700    -0.0250 ca         1 7JK      -0.128000
     16 C14          3.0910     0.7900     0.2490 ca         1 7JK      -0.068000
     17 C16          4.4790    -1.1620    -0.2680 ca         1 7JK       0.081400
     18 N17          5.7080    -1.8140    -0.5320 nc         1 7JK      -0.647100
     19 C18          6.7630    -0.9900    -0.5110 cd         1 7JK       0.507800
     20 C19          5.5880     1.0500    -0.0110 c          1 7JK       0.575600
     21 O20          5.6050     2.2540     0.1980 o          1 7JK      -0.523000
     22 N21         -4.0850     0.1280    -0.3790 n          1 7JK      -0.404800
     23 C23         -5.1350    -1.8210     0.8610 c6         1 7JK       0.137300
     24 N24         -6.3880    -1.6730     0.0680 n3         1 7JK      -0.713600
     25 C25         -6.5880    -0.2490    -0.3210 c6         1 7JK       0.137300
     26 C27         -7.5660    -2.2470     0.7530 c3         1 7JK       0.151100
     27 H1           1.5680     3.4900     1.0630 hc         1 7JK       0.047700
     28 H2           0.5340     3.4140     2.4940 hc         1 7JK       0.047700
     29 H3           1.9010     2.3120     2.3610 hc         1 7JK       0.047700
     30 H4          -3.6450    -1.9220    -0.7330 h1         1 7JK       0.065200
     31 H5          -3.0550    -1.3190     0.8300 h1         1 7JK       0.065200
     32 H6          -5.5450     1.3540    -1.3600 h1         1 7JK       0.065200
     33 H7          -5.3030    -0.2430    -2.0690 h1         1 7JK       0.065200
     34 H8          -1.5990     2.9720     1.4090 ha         1 7JK       0.145000
     35 H9           7.5730     0.8900    -0.2800 hn         1 7JK       0.333500
     36 H10          4.3700    -3.4240    -0.6690 ho         1 7JK       0.497000
     37 H11          1.1800    -2.0240    -0.0280 ha         1 7JK       0.137000
     38 H12          3.0380     1.8610     0.4020 ha         1 7JK       0.145000
     39 H13          7.7700    -1.3470    -0.6950 h5         1 7JK       0.050800
     40 H14         -4.9590    -2.8790     1.1040 h1         1 7JK       0.041700
     41 H15         -5.2330    -1.2860     1.8180 h1         1 7JK       0.041700
     42 H17         -6.7380     0.3740     0.5740 h1         1 7JK       0.041700
     43 H18         -7.4900    -0.1450    -0.9430 h1         1 7JK       0.041700
     44 H19         -7.7660    -1.7220     1.6970 h1         1 7JK       0.033033
     45 H20         -8.4590    -2.1690     0.1190 h1         1 7JK       0.033033
     46 H21         -7.4040    -3.3100     0.9780 h1         1 7JK       0.033033
     47 O11          3.4050    -3.2740    -0.5300 oh         1 7JK      -0.525100
@<TRIPOS>BOND
     1     1     9 1   
     2     1    12 2   
     3     1    22 1   
     4     2     3 2   
     5     2     4 1   
     6     2    10 1   
     7     3    11 1   
     8     3    13 1   
     9     4    27 1   
    10     4    28 1   
    11     4    29 1   
    12     5    15 ar  
    13     5    17 ar  
    14     5    47 1   
    15     6    16 ar  
    16     6    17 ar  
    17     6    20 1   
    18     7    22 1   
    19     7    23 1   
    20     7    30 1   
    21     7    31 1   
    22     8    22 1   
    23     8    25 1   
    24     8    32 1   
    25     8    33 1   
    26     9    10 2   
    27     9    11 1   
    28    10    34 1   
    29    13    15 ar  
    30    13    16 ar  
    31    14    19 1   
    32    14    20 1   
    33    14    35 1   
    34    15    37 1   
    35    16    38 1   
    36    17    18 1   
    37    18    19 2   
    38    19    39 1   
    39    20    21 2   
    40    23    24 1   
    41    23    40 1   
    42    23    41 1   
    43    24    25 1   
    44    24    26 1   
    45    25    42 1   
    46    25    43 1   
    47    26    44 1   
    48    26    45 1   
    49    26    46 1   
    50    36    47 1   
@<TRIPOS>SUBSTRUCTURE
     1 7JK         1 TEMP              0 ****  ****    0 ROOT
