@<TRIPOS>MOLECULE
7JK
   47    50     1     0     0
SMALL
bcc


@<TRIPOS>ATOM
      1 C4          -3.3310     1.1660    -0.4940 c          1 7JK       0.708700
      2 C5           0.0370     1.4990     1.1480 cc         1 7JK      -0.085300
      3 C6           0.4910     0.5660     0.2480 cd         1 7JK      -0.021100
      4 C8           0.8500     2.1600     2.2150 c3         1 7JK      -0.032800
      5 C13          3.2740    -1.8820    -0.3410 ca         1 7JK       0.164100
      6 C15          4.2220     0.3250    -0.0400 ca         1 7JK      -0.155600
      7 C22         -3.7860    -1.2390    -0.0550 c6         1 7JK       0.093500
      8 C26         -5.3420     0.0900    -1.3380 c6         1 7JK       0.093500
      9 C1          -1.9310     1.0270    -0.0140 cd         1 7JK      -0.138700
     10 C2          -1.3490     1.7650     0.9710 cc         1 7JK      -0.099000
     11 S3          -0.7770     0.0140    -0.7850 ss         1 7JK      -0.038800
     12 O7          -3.7750     2.2860    -0.7050 o          1 7JK      -0.583100
     13 C9           1.8400     0.0260     0.0750 ca         1 7JK       0.014000
     14 N10          6.5830     0.4800    -0.1710 ns         1 7JK      -0.497400
     15 C12          2.0160    -1.3500    -0.1610 ca         1 7JK      -0.146000
     16 C14          2.9460     0.8600     0.1270 ca         1 7JK      -0.086000
     17 C16          4.4040    -1.0400    -0.2750 ca         1 7JK       0.081400
     18 N17          5.6310    -1.6270    -0.4510 nc         1 7JK      -0.647100
     19 C18          6.6530    -0.8560    -0.3910 cd         1 7JK       0.507800
     20 C19          5.4080     1.1780     0.0170 c          1 7JK       0.718100
     21 O20          5.4050     2.3780     0.2080 o          1 7JK      -0.598500
     22 N21         -4.0260     0.0310    -0.7240 n          1 7JK      -0.471800
     23 C23         -4.8980    -1.5230     0.9430 c6         1 7JK       0.137300
     24 N24         -6.1970    -1.4960     0.3040 n3         1 7JK      -0.713600
     25 C25         -6.4310    -0.2100    -0.3230 c6         1 7JK       0.137300
     26 C27         -7.2530    -1.8340     1.2320 c3         1 7JK       0.151100
     27 H1           1.2150     3.1370     1.8930 hc         1 7JK       0.047700
     28 H2           0.2470     2.3200     3.1080 hc         1 7JK       0.047700
     29 H3           1.7160     1.5640     2.5000 hc         1 7JK       0.047700
     30 H4          -3.7400    -2.0340    -0.8040 h1         1 7JK       0.065200
     31 H5          -2.8370    -1.2260     0.4730 h1         1 7JK       0.065200
     32 H6          -5.4980     1.0670    -1.7870 h1         1 7JK       0.065200
     33 H7          -5.3720    -0.6570    -2.1370 h1         1 7JK       0.065200
     34 H8          -1.8980     2.4710     1.5800 ha         1 7JK       0.163000
     35 H9           7.4480     1.0040    -0.1350 hn         1 7JK       0.333500
     36 H10          4.3790    -3.3720    -0.6620 ho         1 7JK       0.458000
     37 H11          1.1580    -2.0110    -0.1860 ha         1 7JK       0.155000
     38 H12          2.8270     1.9250     0.2680 ha         1 7JK       0.163000
     39 H13          7.6510    -1.2560    -0.5190 h5         1 7JK       0.050800
     40 H14         -4.7300    -2.5130     1.3740 h1         1 7JK       0.041700
     41 H15         -4.8300    -0.7930     1.7700 h1         1 7JK       0.041700
     42 H17         -6.4760     0.6080     0.4190 h1         1 7JK       0.041700
     43 H18         -7.3950    -0.2320    -0.8350 h1         1 7JK       0.041700
     44 H19         -7.3410    -1.1190     2.0650 h1         1 7JK       0.033033
     45 H20         -8.2110    -1.8620     0.7130 h1         1 7JK       0.033033
     46 H21         -7.0730    -2.8220     1.6590 h1         1 7JK       0.033033
     47 O11          3.4310    -3.1910    -0.5660 oh         1 7JK      -0.486100
@<TRIPOS>BOND
     1     1     9 1   
     2     1    12 2   
     3     1    22 1   
     4     2     3 2   
     5     2     4 1   
     6     2    10 1   
     7     3    11 1   
     8     3    13 1   
     9     4    27 1   
    10     4    28 1   
    11     4    29 1   
    12     5    15 ar  
    13     5    17 ar  
    14     5    47 1   
    15     6    16 ar  
    16     6    17 ar  
    17     6    20 1   
    18     7    22 1   
    19     7    23 1   
    20     7    30 1   
    21     7    31 1   
    22     8    22 1   
    23     8    25 1   
    24     8    32 1   
    25     8    33 1   
    26     9    10 2   
    27     9    11 1   
    28    10    34 1   
    29    13    15 ar  
    30    13    16 ar  
    31    14    19 1   
    32    14    20 1   
    33    14    35 1   
    34    15    37 1   
    35    16    38 1   
    36    17    18 1   
    37    18    19 2   
    38    19    39 1   
    39    20    21 2   
    40    23    24 1   
    41    23    40 1   
    42    23    41 1   
    43    24    25 1   
    44    24    26 1   
    45    25    42 1   
    46    25    43 1   
    47    26    44 1   
    48    26    45 1   
    49    26    46 1   
    50    36    47 1   
@<TRIPOS>SUBSTRUCTURE
     1 7JK         1 TEMP              0 ****  ****    0 ROOT
