@<TRIPOS>MOLECULE
7JL
   18    19     1     0     0
SMALL
bcc


@<TRIPOS>ATOM
      1 C4           0.5300    -1.8060    -0.1060 ca         1 7JL       0.163100
      2 C7           1.1640     0.5300    -0.0110 ca         1 7JL      -0.156600
      3 C8           1.5330    -0.8150    -0.0750 ca         1 7JL       0.087400
      4 C10          3.7430    -0.3440    -0.0820 cc         1 7JL       0.511800
      5 C1          -0.1790     0.9100     0.0250 ca         1 7JL      -0.077000
      6 C2          -1.1330    -0.0820    -0.0060 ca         1 7JL       0.000100
      7 C3          -0.8000    -1.4370    -0.0710 ca         1 7JL      -0.127000
      8 BR5         -2.9580     0.3900     0.0420 br         1 7JL      -0.080100
      9 O6           0.8670    -3.0960    -0.1670 oh         1 7JL      -0.483100
     10 N9           2.8350    -1.2470    -0.1110 nd         1 7JL      -0.648100
     11 N11          3.4880     0.9870    -0.0200 ns         1 7JL      -0.496400
     12 C12          2.2250     1.5360     0.0200 c          1 7JL       0.717100
     13 O13          2.0520     2.7380     0.0760 o          1 7JL      -0.595500
     14 H1           4.7900    -0.6170    -0.1070 h5         1 7JL       0.051800
     15 H2          -0.4450     1.9570     0.0760 ha         1 7JL       0.172000
     16 H3          -1.5660    -2.2010    -0.0940 ha         1 7JL       0.167000
     17 H4           1.8360    -3.1590    -0.1790 ho         1 7JL       0.459000
     18 H5           4.2750     1.6230     0.0020 hn         1 7JL       0.334500
@<TRIPOS>BOND
     1     1     3 ar  
     2     1     7 ar  
     3     1     9 1   
     4     2     3 ar  
     5     2     5 ar  
     6     2    12 1   
     7     3    10 1   
     8     4    10 2   
     9     4    11 1   
    10     4    14 1   
    11     5     6 ar  
    12     5    15 1   
    13     6     7 ar  
    14     6     8 1   
    15     7    16 1   
    16     9    17 1   
    17    11    12 1   
    18    11    18 1   
    19    12    13 2   
@<TRIPOS>SUBSTRUCTURE
     1 7JL         1 TEMP              0 ****  ****    0 ROOT
