@<TRIPOS>MOLECULE
7JL
   18    19     1     0     0
SMALL
No Charge or Current Charge


@<TRIPOS>ATOM
      1 C4           0.5080    -1.8200    -0.1050 ca         1 7JL       0.163100
      2 C7           1.1820     0.5130    -0.0100 ca         1 7JL      -0.156600
      3 C8           1.5380    -0.8510    -0.0750 ca         1 7JL       0.087400
      4 C10          3.7930    -0.3340    -0.0820 cc         1 7JL       0.511800
      5 C1          -0.1780     0.8940     0.0250 ca         1 7JL      -0.059000
      6 C2          -1.1850    -0.0850    -0.0050 ca         1 7JL       0.000100
      7 C3          -0.8440    -1.4440    -0.0700 ca         1 7JL      -0.109000
      8 Br5         -3.0240     0.4360     0.0420 br         1 7JL      -0.080100
      9 O6           0.8490    -3.1390    -0.1680 oh         1 7JL      -0.522100
     10 N9           2.8770    -1.3080    -0.1130 nd         1 7JL      -0.648100
     11 N11          3.5110     1.0050    -0.0190 ns         1 7JL      -0.429400
     12 C12          2.2650     1.5310     0.0210 c          1 7JL       0.574600
     13 O13          2.0720     2.7360     0.0770 o          1 7JL      -0.520000
     14 H1           4.8580    -0.5340    -0.1050 h5         1 7JL       0.051800
     15 H2          -0.4540     1.9450     0.0750 ha         1 7JL       0.154000
     16 H3          -1.6200    -2.2040    -0.0940 ha         1 7JL       0.149000
     17 H4           1.8350    -3.1390    -0.1810 ho         1 7JL       0.498000
     18 H5           4.2750     1.6640     0.0000 hn         1 7JL       0.334500
@<TRIPOS>BOND
     1     1     3 ar  
     2     1     7 ar  
     3     1     9 1   
     4     2     3 ar  
     5     2     5 ar  
     6     2    12 1   
     7     3    10 1   
     8     4    10 2   
     9     4    11 1   
    10     4    14 1   
    11     5     6 ar  
    12     5    15 1   
    13     6     7 ar  
    14     6     8 1   
    15     7    16 1   
    16     9    17 1   
    17    11    12 1   
    18    11    18 1   
    19    12    13 2   
@<TRIPOS>SUBSTRUCTURE
     1 7JL         1 TEMP              0 ****  ****    0 ROOT
