@<TRIPOS>MOLECULE
7JM
   30    32     1     0     0
SMALL
bcc


@<TRIPOS>ATOM
      1 C4           1.2570     1.3880     0.8850 ca         1 7JM       0.154100
      2 C6           1.6240    -0.4940    -0.5840 ca         1 7JM      -0.165600
      3 C7           2.1540     0.5320     0.2100 ca         1 7JM       0.147400
      4 C13         -2.0830    -0.0020    -0.1990 cp         1 7JM      -0.161300
      5 C15         -4.0070    -0.1640    -1.6300 ca         1 7JM      -0.252300
      6 C1           0.2460    -0.6760    -0.7130 ca         1 7JM      -0.092000
      7 C2          -0.6230     0.1650    -0.0450 cp         1 7JM      -0.005000
      8 C3          -0.1040     1.1990     0.7480 ca         1 7JM      -0.195000
      9 O5           1.7920     2.3590     1.6380 oh         1 7JM      -0.460100
     10 N8           3.5040     0.7390     0.3630 nc         1 7JM      -0.588100
     11 C9           4.2840    -0.0600    -0.2630 cd         1 7JM       0.487800
     12 N10          3.8680    -1.0810    -1.0560 ns         1 7JM      -0.497400
     13 C11          2.5460    -1.3860    -1.2830 c          1 7JM       0.715100
     14 O12          2.2200    -2.3150    -1.9990 o          1 7JM      -0.608500
     15 C14         -2.6390    -0.0170    -1.4740 ca         1 7JM      -0.077000
     16 C16         -4.7750    -0.2900    -0.4860 ca         1 7JM       0.413200
     17 N17         -4.2600    -0.3000     0.7370 nb         1 7JM      -0.679000
     18 C18         -2.9460    -0.1640     0.8970 ca         1 7JM       0.438600
     19 C19         -2.4410    -0.2330     2.3080 c3         1 7JM      -0.147400
     20 H1          -4.4650    -0.1760    -2.6090 ha         1 7JM       0.145000
     21 H2          -0.1340    -1.4850    -1.3230 ha         1 7JM       0.161000
     22 H3          -0.7840     1.8770     1.2510 ha         1 7JM       0.140000
     23 H4           1.0970     2.8950     2.0380 ho         1 7JM       0.423000
     24 H5           5.3580     0.0500    -0.1810 h5         1 7JM       0.049800
     25 H6           4.5680    -1.6640    -1.4960 hn         1 7JM       0.332500
     26 H7          -1.9990     0.1000    -2.3400 ha         1 7JM       0.142000
     27 H8          -5.8520    -0.3960    -0.5560 h4         1 7JM       0.020100
     28 H9          -1.5130    -0.7990     2.3800 hc         1 7JM       0.053367
     29 H10         -2.2450     0.7600     2.7170 hc         1 7JM       0.053367
     30 H11         -3.1890    -0.7040     2.9430 hc         1 7JM       0.053367
@<TRIPOS>BOND
     1     1     3 ar  
     2     1     8 ar  
     3     1     9 1   
     4     2     3 ar  
     5     2     6 ar  
     6     2    13 1   
     7     3    10 1   
     8     4     7 1   
     9     4    15 ar  
    10     4    18 ar  
    11     5    15 ar  
    12     5    16 ar  
    13     5    20 1   
    14     6     7 ar  
    15     6    21 1   
    16     7     8 ar  
    17     8    22 1   
    18     9    23 1   
    19    10    11 2   
    20    11    12 1   
    21    11    24 1   
    22    12    13 1   
    23    12    25 1   
    24    13    14 2   
    25    15    26 1   
    26    16    17 ar  
    27    16    27 1   
    28    17    18 ar  
    29    18    19 1   
    30    19    28 1   
    31    19    29 1   
    32    19    30 1   
@<TRIPOS>SUBSTRUCTURE
     1 7JM         1 TEMP              0 ****  ****    0 ROOT
