@<TRIPOS>MOLECULE
7JM
   30    32     1     0     0
SMALL
No Charge or Current Charge


@<TRIPOS>ATOM
      1 C4           1.3020     1.3920     0.9060 ca         1 7JM       0.154100
      2 C6           1.6810    -0.4850    -0.5920 ca         1 7JM      -0.165600
      3 C7           2.2170     0.5360     0.2270 ca         1 7JM       0.147400
      4 C13         -2.0920     0.0090    -0.2020 cp         1 7JM      -0.096000
      5 C15         -4.0410    -0.1890    -1.6400 ca         1 7JM      -0.169000
      6 C1           0.2860    -0.6480    -0.7240 ca         1 7JM      -0.074000
      7 C2          -0.6190     0.1920    -0.0410 cp         1 7JM      -0.005000
      8 C3          -0.0860     1.2190     0.7680 ca         1 7JM      -0.177000
      9 O5           1.7530     2.4090     1.7090 oh         1 7JM      -0.499100
     10 N8           3.6090     0.7460     0.3970 nc         1 7JM      -0.588100
     11 C9           4.3730    -0.1100    -0.2870 cd         1 7JM       0.487800
     12 N10          3.9190    -1.1150    -1.0930 ns         1 7JM      -0.430400
     13 C11          2.6150    -1.3870    -1.3140 c          1 7JM       0.572600
     14 O12          2.2630    -2.2990    -2.0460 o          1 7JM      -0.533000
     15 C14         -2.6560    -0.0230    -1.4990 ca         1 7JM      -0.059000
     16 C16         -4.8330    -0.3230    -0.4900 ca         1 7JM       0.347900
     17 N17         -4.3190    -0.3090     0.7590 nb         1 7JM      -0.679000
     18 C18         -2.9810    -0.1500     0.9040 ca         1 7JM       0.373300
     19 C19         -2.5020    -0.1910     2.3470 c3         1 7JM      -0.147400
     20 H1          -4.5020    -0.2100    -2.6230 ha         1 7JM       0.127000
     21 H2          -0.1080    -1.4410    -1.3560 ha         1 7JM       0.143000
     22 H3          -0.7670     1.8930     1.2810 ha         1 7JM       0.122000
     23 H4           0.9800     2.8830     2.0790 ho         1 7JM       0.462000
     24 H5           5.4540    -0.0640    -0.2480 h5         1 7JM       0.049800
     25 H6           4.5810    -1.7100    -1.5690 hn         1 7JM       0.332500
     26 H7          -2.0260     0.0910    -2.3790 ha         1 7JM       0.124000
     27 H8          -5.9120    -0.4520    -0.5710 h4         1 7JM       0.020100
     28 H9          -1.5280    -0.6860     2.4300 hc         1 7JM       0.053367
     29 H10         -2.4050     0.8220     2.7540 hc         1 7JM       0.053367
     30 H11         -3.1980    -0.7410     2.9910 hc         1 7JM       0.053367
@<TRIPOS>BOND
     1     1     3 ar  
     2     1     8 ar  
     3     1     9 1   
     4     2     3 ar  
     5     2     6 ar  
     6     2    13 1   
     7     3    10 1   
     8     4     7 1   
     9     4    15 ar  
    10     4    18 ar  
    11     5    15 ar  
    12     5    16 ar  
    13     5    20 1   
    14     6     7 ar  
    15     6    21 1   
    16     7     8 ar  
    17     8    22 1   
    18     9    23 1   
    19    10    11 2   
    20    11    12 1   
    21    11    24 1   
    22    12    13 1   
    23    12    25 1   
    24    13    14 2   
    25    15    26 1   
    26    16    17 ar  
    27    16    27 1   
    28    17    18 ar  
    29    18    19 1   
    30    19    28 1   
    31    19    29 1   
    32    19    30 1   
@<TRIPOS>SUBSTRUCTURE
     1 7JM         1 TEMP              0 ****  ****    0 ROOT
