@<TRIPOS>MOLECULE
7JN
   66    71     1     0     0
SMALL
No Charge or Current Charge


@<TRIPOS>ATOM
      1 N1          -5.5850    -0.2860     0.6110 na         1 7JN      -0.309300
      2 C4          -7.1760    -0.3840    -0.8760 ca         1 7JN      -0.096600
      3 C6           4.2740    -0.3210    -1.7160 ca         1 7JN      -0.248600
      4 C7          -6.0660    -1.5970     0.5140 cc         1 7JN       0.412700
      5 C10         -2.3110    -0.5100     1.7180 c5         1 7JN       0.194300
      6 C13          5.1970    -0.3650    -2.7890 ca         1 7JN       0.205100
      7 C15          2.8140    -0.6450    -1.9470 c          1 7JN       0.626700
      8 C20          6.1200     0.3340    -0.1960 cp         1 7JN      -0.051000
      9 C21          6.5660    -0.0650    -2.5740 ca         1 7JN       0.086100
     10 C26          0.5450    -0.8670    -0.9080 c3         1 7JN       0.132000
     11 C35          7.5210     1.4010     3.7650 ca         1 7JN       0.172000
     12 C37          6.2650     1.8420     3.3260 ca         1 7JN      -0.150500
     13 C30          5.8090     1.4960     2.0410 ca         1 7JN      -0.078500
     14 C36          8.3260     0.6160     2.9270 ca         1 7JN      -0.150500
     15 C31          7.8720     0.2710     1.6410 ca         1 7JN      -0.078500
     16 C27          6.6040     0.7030     1.1730 cp         1 7JN      -0.042000
     17 C23          7.0140     0.2790    -1.2890 ca         1 7JN      -0.142000
     18 O33          7.4700    -0.1020    -3.6070 oh         1 7JN      -0.507100
     19 O32          4.7630    -0.7010    -4.0430 oh         1 7JN      -0.527100
     20 C14          4.7560     0.0310    -0.4290 ca         1 7JN      -0.066000
     21 O28          2.3910    -0.9550    -3.0550 o          1 7JN      -0.649100
     22 N24          1.9750    -0.5770    -0.8630 ns         1 7JN      -0.479900
     23 C12         -0.0930    -0.5900     0.4450 cx         1 7JN      -0.133700
     24 C11          0.0050    -1.5970     1.5730 cx         1 7JN      -0.130400
     25 C9          -1.3220    -1.3530     0.8880 cx         1 7JN      -0.119700
     26 O8          -3.2680     0.0830     0.8260 os         1 7JN      -0.445000
     27 C19         -3.1580    -1.4980     2.5560 c5         1 7JN      -0.153400
     28 C18         -4.3620    -0.5810     2.8900 c5         1 7JN       0.130300
     29 O34         -4.0340     0.2950     3.9820 oh         1 7JN      -0.707000
     30 C3          -4.5380     0.1860     1.5200 c5         1 7JN       0.325300
     31 N5          -7.0530    -1.6920    -0.3970 nd         1 7JN      -0.559100
     32 C2          -6.2930     0.4750    -0.2740 ca         1 7JN       0.117500
     33 N17         -6.2400     1.7860    -0.5810 nb         1 7JN      -0.224000
     34 C25         -7.1150     2.2010    -1.5280 ca         1 7JN       0.179900
     35 N22         -8.0230     1.4390    -2.1830 nb         1 7JN      -0.299000
     36 C16         -8.0540     0.1320    -1.8540 ca         1 7JN       0.443900
     37 N29         -8.9720    -0.6900    -2.5000 nu         1 7JN      -0.912100
     38 C39         -9.9490    -0.3100    -3.5360 c3         1 7JN       0.223100
     39 H1          -5.6740    -2.4110     1.1120 h5         1 7JN       0.071800
     40 H2          -1.8450     0.2730     2.3350 h1         1 7JN       0.065700
     41 H3           0.0720    -0.2400    -1.6750 h1         1 7JN       0.063700
     42 H4           0.4030    -1.9200    -1.1870 h1         1 7JN       0.063700
     43 H6           4.8390     1.8580     1.7120 ha         1 7JN       0.118000
     44 H7           9.2980     0.2750     3.2730 ha         1 7JN       0.133000
     45 H8           8.5020    -0.3480     1.0080 ha         1 7JN       0.118000
     46 H9           8.0630     0.5210    -1.1350 ha         1 7JN       0.119000
     47 H10          8.3570     0.1360    -3.2620 ho         1 7JN       0.460000
     48 H11          3.7870    -0.8680    -3.9480 ho         1 7JN       0.521000
     49 H12          4.0820     0.0600     0.4220 ha         1 7JN       0.108000
     50 H13          2.3860    -0.3220     0.0240 hn         1 7JN       0.322500
     51 H14         -0.0350     0.4630     0.7170 hc         1 7JN       0.094700
     52 H15          0.5090    -2.5400     1.3740 hc         1 7JN       0.078200
     53 H16          0.1460    -1.2160     2.5830 hc         1 7JN       0.078200
     54 H17         -1.7060    -2.1300     0.2290 hc         1 7JN       0.088700
     55 H18         -3.4670    -2.3740     1.9730 hc         1 7JN       0.069700
     56 H19         -2.6290    -1.8630     3.4430 hc         1 7JN       0.069700
     57 H20         -5.2600    -1.1670     3.1380 h1         1 7JN       0.081700
     58 H21         -4.0020    -0.2540     4.8000 ho         1 7JN       0.512000
     59 H22         -4.7690     1.2390     1.7250 h2         1 7JN       0.124700
     60 H23         -7.0850     3.2570    -1.7890 h5         1 7JN       0.045100
     61 H24         -8.9370    -1.6660    -2.1990 hn         1 7JN       0.515000
     62 H25        -10.6420     0.4500    -3.1510 h1         1 7JN       0.043700
     63 H26         -9.4370     0.0990    -4.4170 h1         1 7JN       0.043700
     64 H27        -10.5350    -1.1840    -3.8510 h1         1 7JN       0.043700
     65 H5           5.6470     2.4530     3.9800 ha         1 7JN       0.133000
     66 F38          7.9580     1.7320     4.9990 f          1 7JN      -0.177000
@<TRIPOS>BOND
     1     1     4 1   
     2     1    30 1   
     3     1    32 1   
     4     2    31 1   
     5     2    32 ar  
     6     2    36 ar  
     7     3     6 ar  
     8     3     7 1   
     9     3    20 ar  
    10     4    31 2   
    11     4    39 1   
    12     5    25 1   
    13     5    26 1   
    14     5    27 1   
    15     5    40 1   
    16     6     9 ar  
    17     6    19 1   
    18     7    21 2   
    19     7    22 1   
    20     8    16 1   
    21     8    17 ar  
    22     8    20 ar  
    23     9    17 ar  
    24     9    18 1   
    25    10    22 1   
    26    10    23 1   
    27    10    41 1   
    28    10    42 1   
    29    11    12 ar  
    30    11    14 ar  
    31    11    66 1   
    32    12    13 ar  
    33    12    65 1   
    34    13    16 ar  
    35    13    43 1   
    36    14    15 ar  
    37    14    44 1   
    38    15    16 ar  
    39    15    45 1   
    40    17    46 1   
    41    18    47 1   
    42    19    48 1   
    43    20    49 1   
    44    22    50 1   
    45    23    24 1   
    46    23    25 1   
    47    23    51 1   
    48    24    25 1   
    49    24    52 1   
    50    24    53 1   
    51    25    54 1   
    52    26    30 1   
    53    27    28 1   
    54    27    55 1   
    55    27    56 1   
    56    28    29 1   
    57    28    30 1   
    58    28    57 1   
    59    29    58 1   
    60    30    59 1   
    61    32    33 ar  
    62    33    34 ar  
    63    34    35 ar  
    64    34    60 1   
    65    35    36 ar  
    66    36    37 1   
    67    37    38 1   
    68    37    61 1   
    69    38    62 1   
    70    38    63 1   
    71    38    64 1   
@<TRIPOS>SUBSTRUCTURE
     1 7JN         1 TEMP              0 ****  ****    0 ROOT
