@<TRIPOS>MOLECULE
7JN
   66    71     1     0     0
SMALL
bcc


@<TRIPOS>ATOM
      1 N1          -5.1200     0.3480    -0.0190 na         1 7JN      -0.280000
      2 C4          -6.7360    -0.3280    -1.3250 ca         1 7JN      -0.227200
      3 C6           4.2560    -0.4190    -1.5120 ca         1 7JN      -0.248600
      4 C7          -4.6500    -0.4490    -1.0240 cc         1 7JN       0.412700
      5 C10         -2.3570     0.0080     1.6780 c5         1 7JN       0.171100
      6 C13          5.1120    -0.6160    -2.6020 ca         1 7JN       0.205100
      7 C15          2.7950    -0.5530    -1.7460 c          1 7JN       0.693700
      8 C20          6.1550     0.0190    -0.0670 cp         1 7JN      -0.051000
      9 C21          6.5030    -0.5290    -2.4020 ca         1 7JN       0.086100
     10 C26          0.5390    -0.6570    -0.7930 c3         1 7JN       0.132000
     11 C35          7.7290     1.0730     3.7390 ca         1 7JN       0.136900
     12 C37          6.5460     1.6470     3.3180 ca         1 7JN      -0.168500
     13 C30          6.0450     1.3010     2.0730 ca         1 7JN      -0.096500
     14 C36          8.4190     0.1680     2.9560 ca         1 7JN      -0.168500
     15 C31          7.9000    -0.1700     1.7160 ca         1 7JN      -0.096500
     16 C27          6.7070     0.3860     1.2520 cp         1 7JN      -0.042000
     17 C23          7.0050    -0.2150    -1.1570 ca         1 7JN      -0.160000
     18 O33          7.2710    -0.7440    -3.4870 oh         1 7JN      -0.468100
     19 O32          4.6890    -0.8840    -3.8360 oh         1 7JN      -0.488100
     20 C14          4.7910    -0.0910    -0.2610 ca         1 7JN      -0.084000
     21 O28          2.3490    -0.6310    -2.9020 o          1 7JN      -0.649100
     22 N24          1.9860    -0.5840    -0.6900 ns         1 7JN      -0.546900
     23 C12         -0.0660    -0.2990     0.5340 cx         1 7JN      -0.133700
     24 C11         -0.1580    -1.3340     1.6150 cx         1 7JN      -0.130400
     25 C9          -1.3980    -0.8550     0.9220 cx         1 7JN      -0.119700
     26 O8          -3.0120     0.9230     0.7770 os         1 7JN      -0.398600
     27 C19         -3.4960    -0.7400     2.3580 c5         1 7JN      -0.153400
     28 C18         -4.5970     0.3080     2.3930 c5         1 7JN       0.107100
     29 O34         -4.3850     1.2850     3.3830 oh         1 7JN      -0.584800
     30 C3          -4.3700     1.0070     1.0490 c5         1 7JN       0.272800
     31 N5          -5.5850    -0.8750    -1.8250 nd         1 7JN      -0.559100
     32 C2          -6.4680     0.4400    -0.2040 ca         1 7JN       0.445800
     33 N17         -7.3530     1.1210     0.5240 nb         1 7JN      -0.750000
     34 C25         -8.5780     0.9890     0.0490 ca         1 7JN       0.705900
     35 N22         -8.9860     0.2870    -1.0070 nb         1 7JN      -0.825000
     36 C16         -8.0860    -0.3920    -1.7270 ca         1 7JN       0.772200
     37 N29         -8.4850    -1.0940    -2.7880 nu         1 7JN      -0.856900
     38 C39         -9.8620    -1.1990    -3.2030 c3         1 7JN       0.223100
     39 H1          -3.6010    -0.6740    -1.1310 h5         1 7JN       0.071800
     40 H2          -1.8030     0.6020     2.4150 h1         1 7JN       0.065700
     41 H3           0.1980     0.0340    -1.5650 h1         1 7JN       0.063700
     42 H4           0.2280    -1.6610    -1.0970 h1         1 7JN       0.063700
     43 H6           5.1310     1.7720     1.7350 ha         1 7JN       0.136000
     44 H7           9.3420    -0.2750     3.3090 ha         1 7JN       0.151000
     45 H8           8.4310    -0.8950     1.1120 ha         1 7JN       0.136000
     46 H9           8.0790    -0.1190    -1.0350 ha         1 7JN       0.137000
     47 H10          8.2030    -0.6570    -3.2580 ho         1 7JN       0.421000
     48 H11          3.7000    -0.8270    -3.8040 ho         1 7JN       0.482000
     49 H12          4.1360     0.0830     0.5820 ha         1 7JN       0.126000
     50 H13          2.3760    -0.6470     0.2360 hn         1 7JN       0.322500
     51 H14          0.1370     0.7170     0.8610 hc         1 7JN       0.094700
     52 H15          0.1820    -2.3390     1.3950 hc         1 7JN       0.078200
     53 H16          0.0110    -1.0200     2.6380 hc         1 7JN       0.078200
     54 H17         -1.8580    -1.5560     0.2290 hc         1 7JN       0.088700
     55 H18         -3.8110    -1.6010     1.7620 hc         1 7JN       0.069700
     56 H19         -3.2240    -1.1110     3.3460 hc         1 7JN       0.069700
     57 H20         -5.5990    -0.1290     2.4640 h1         1 7JN       0.081700
     58 H21         -4.3390     0.8460     4.2380 ho         1 7JN       0.413000
     59 H22         -4.6960     2.0510     1.0760 h2         1 7JN       0.124700
     60 H23         -9.3590     1.5170     0.5860 h5         1 7JN       0.045100
     61 H24         -7.7930    -1.6350    -3.2780 hn         1 7JN       0.459800
     62 H25        -10.4810    -1.6870    -2.4490 h1         1 7JN       0.043700
     63 H26        -10.2930    -0.2200    -3.4130 h1         1 7JN       0.043700
     64 H27         -9.8970    -1.7910    -4.1130 h1         1 7JN       0.043700
     65 H5           6.0280     2.3620     3.9440 ha         1 7JN       0.151000
     66 F38          8.2230     1.4050     4.9420 f          1 7JN      -0.141900
@<TRIPOS>BOND
     1     1     4 1   
     2     1    30 1   
     3     1    32 1   
     4     2    31 1   
     5     2    32 ar  
     6     2    36 ar  
     7     3     6 ar  
     8     3     7 1   
     9     3    20 ar  
    10     4    31 2   
    11     4    39 1   
    12     5    25 1   
    13     5    26 1   
    14     5    27 1   
    15     5    40 1   
    16     6     9 ar  
    17     6    19 1   
    18     7    21 2   
    19     7    22 1   
    20     8    16 1   
    21     8    17 ar  
    22     8    20 ar  
    23     9    17 ar  
    24     9    18 1   
    25    10    22 1   
    26    10    23 1   
    27    10    41 1   
    28    10    42 1   
    29    11    12 ar  
    30    11    14 ar  
    31    11    66 1   
    32    12    13 ar  
    33    12    65 1   
    34    13    16 ar  
    35    13    43 1   
    36    14    15 ar  
    37    14    44 1   
    38    15    16 ar  
    39    15    45 1   
    40    17    46 1   
    41    18    47 1   
    42    19    48 1   
    43    20    49 1   
    44    22    50 1   
    45    23    24 1   
    46    23    25 1   
    47    23    51 1   
    48    24    25 1   
    49    24    52 1   
    50    24    53 1   
    51    25    54 1   
    52    26    30 1   
    53    27    28 1   
    54    27    55 1   
    55    27    56 1   
    56    28    29 1   
    57    28    30 1   
    58    28    57 1   
    59    29    58 1   
    60    30    59 1   
    61    32    33 ar  
    62    33    34 ar  
    63    34    35 ar  
    64    34    60 1   
    65    35    36 ar  
    66    36    37 1   
    67    37    38 1   
    68    37    61 1   
    69    38    62 1   
    70    38    63 1   
    71    38    64 1   
@<TRIPOS>SUBSTRUCTURE
     1 7JN         1 TEMP              0 ****  ****    0 ROOT
