@<TRIPOS>MOLECULE
7JO
   63    67     1     0     0
SMALL
No Charge or Current Charge


@<TRIPOS>ATOM
      1 C4          -3.7150     0.1500    -0.9220 ca         1 7JO      -0.075000
      2 C5          -2.7730    -0.5870    -0.1550 cp         1 7JO      -0.040000
      3 C6          -2.5810    -0.2010     1.1990 ca         1 7JO      -0.075000
      4 C7          -2.0310    -1.7510    -0.7470 cp         1 7JO      -0.046000
      5 C8          -2.6270    -2.5540    -1.7480 ca         1 7JO      -0.131000
      6 C10         -0.6560    -3.9890    -1.8300 ca         1 7JO       0.177100
      7 C20          0.0320     2.5440    -0.2310 ca         1 7JO       0.138500
      8 C21          2.2980     1.4360    -0.1260 c5         1 7JO       0.313300
      9 C22          1.1760     2.8640     1.6540 cc         1 7JO       0.399700
     10 C26          3.7420     2.0280     0.1080 c5         1 7JO       0.100300
     11 C28         -1.8290     3.9840     0.1590 ca         1 7JO       0.450900
     12 C1          -3.3010     0.8690     1.7600 ca         1 7JO      -0.148000
     13 C2          -4.2340     1.5670     0.9830 ca         1 7JO       0.160000
     14 C3          -4.4430     1.2120    -0.3560 ca         1 7JO      -0.148000
     15 C9          -1.9460    -3.6530    -2.2870 ca         1 7JO       0.031100
     16 C11         -0.0210    -3.2210    -0.8200 ca         1 7JO      -0.163600
     17 C12         -0.7270    -2.0980    -0.3060 ca         1 7JO      -0.071000
     18 F13         -4.9360     2.5850     1.5260 f          1 7JO      -0.187000
     19 C14          1.3570    -3.5840    -0.2790 c          1 7JO       0.623700
     20 N15          1.9160    -2.6790     0.5980 ns         1 7JO      -0.509900
     21 O16          1.9530    -4.6140    -0.5620 o          1 7JO      -0.583100
     22 O17         -0.0690    -5.0730    -2.4130 oh         1 7JO      -0.502100
     23 O18         -2.5440    -4.4160    -3.2600 oh         1 7JO      -0.557100
     24 N19          1.1800     2.1990     0.4230 na         1 7JO      -0.302300
     25 C23         -0.6140     3.4220     0.6010 ca         1 7JO      -0.099600
     26 N24         -0.4590     2.2000    -1.4370 nb         1 7JO      -0.220000
     27 O25          2.2880     0.1200     0.4780 os         1 7JO      -0.465000
     28 N27          0.0800     3.6330     1.7960 nd         1 7JO      -0.545100
     29 C29         -1.6350     2.7800    -1.7770 ca         1 7JO       0.182900
     30 C30          3.6550    -0.2650     0.7310 c5         1 7JO       0.169300
     31 C31          4.2920     1.0750     1.2060 c5         1 7JO       0.091300
     32 O32          4.5940     1.9290    -1.0420 oh         1 7JO      -0.701000
     33 N33         -2.3460     3.6670    -1.0380 nb         1 7JO      -0.303000
     34 N34         -2.5330     4.8800     0.9000 nv         1 7JO      -1.054900
     35 C35          3.6990    -1.4210     1.7610 c3         1 7JO      -0.100400
     36 O36          5.7330     1.0730     1.2060 oh         1 7JO      -0.704000
     37 C37          3.2290    -2.7960     1.2270 c3         1 7JO       0.131700
     38 C38          3.2250    -3.8660     2.3410 c3         1 7JO      -0.105100
     39 H1          -3.8810    -0.0970    -1.9670 ha         1 7JO       0.121000
     40 H2          -1.8850    -0.7460     1.8310 ha         1 7JO       0.121000
     41 H3          -3.6320    -2.3300    -2.0930 ha         1 7JO       0.117000
     42 H4           2.1150     1.3540    -1.2050 h2         1 7JO       0.135700
     43 H5           1.9830     2.7680     2.3700 h5         1 7JO       0.061800
     44 H6           3.7020     3.0670     0.4640 h1         1 7JO       0.071700
     45 H7          -3.1450     1.1480     2.7990 ha         1 7JO       0.134500
     46 H8          -5.1620     1.7630    -0.9570 ha         1 7JO       0.134500
     47 H9          -0.2760    -1.4720     0.4570 ha         1 7JO       0.125000
     48 H10          1.4300    -1.7980     0.7140 hn         1 7JO       0.331500
     49 H11         -0.7290    -5.4030    -3.0630 ho         1 7JO       0.482000
     50 H12         -3.4350    -4.0470    -3.4570 ho         1 7JO       0.477000
     51 H13         -2.0490     2.5120    -2.7480 h5         1 7JO       0.046100
     52 H14          4.1130    -0.6050    -0.2100 h1         1 7JO       0.086700
     53 H15          3.9040     1.3580     2.1950 h1         1 7JO       0.048700
     54 H16          5.4580     1.6480    -0.6410 ho         1 7JO       0.527000
     55 H17         -3.5210     4.9850     0.6900 hn         1 7JO       0.506500
     56 H18         -2.2700     4.9670     1.8780 hn         1 7JO       0.506500
     57 H19          4.7260    -1.5350     2.1280 hc         1 7JO       0.057700
     58 H20          3.0930    -1.1470     2.6330 hc         1 7JO       0.057700
     59 H21          6.0320     0.7040     2.0720 ho         1 7JO       0.518000
     60 H22          3.9420    -3.1140     0.4530 h1         1 7JO       0.059700
     61 H23          4.2180    -3.9490     2.7980 hc         1 7JO       0.046367
     62 H24          2.5060    -3.6060     3.1270 hc         1 7JO       0.046367
     63 H25          2.9560    -4.8500     1.9420 hc         1 7JO       0.046367
@<TRIPOS>BOND
     1     1     2 ar  
     2     1    14 ar  
     3     1    39 1   
     4     2     3 ar  
     5     2     4 1   
     6     3    12 ar  
     7     3    40 1   
     8     4     5 ar  
     9     4    17 ar  
    10     5    15 ar  
    11     5    41 1   
    12     6    15 ar  
    13     6    16 ar  
    14     6    22 1   
    15     7    24 1   
    16     7    25 ar  
    17     7    26 ar  
    18     8    10 1   
    19     8    24 1   
    20     8    27 1   
    21     8    42 1   
    22     9    24 1   
    23     9    28 2   
    24     9    43 1   
    25    10    31 1   
    26    10    32 1   
    27    10    44 1   
    28    11    25 ar  
    29    11    33 ar  
    30    11    34 1   
    31    12    13 ar  
    32    12    45 1   
    33    13    14 ar  
    34    13    18 1   
    35    14    46 1   
    36    15    23 1   
    37    16    17 ar  
    38    16    19 1   
    39    17    47 1   
    40    19    20 1   
    41    19    21 2   
    42    20    37 1   
    43    20    48 1   
    44    22    49 1   
    45    23    50 1   
    46    25    28 1   
    47    26    29 ar  
    48    27    30 1   
    49    29    33 ar  
    50    29    51 1   
    51    30    31 1   
    52    30    35 1   
    53    30    52 1   
    54    31    36 1   
    55    31    53 1   
    56    32    54 1   
    57    34    55 1   
    58    34    56 1   
    59    35    37 1   
    60    35    57 1   
    61    35    58 1   
    62    36    59 1   
    63    37    38 1   
    64    37    60 1   
    65    38    61 1   
    66    38    62 1   
    67    38    63 1   
@<TRIPOS>SUBSTRUCTURE
     1 7JO         1 TEMP              0 ****  ****    0 ROOT
