@<TRIPOS>MOLECULE
7JO
   63    67     1     0     0
SMALL
bcc


@<TRIPOS>ATOM
      1 C4          -3.4580     0.3800    -0.6150 ca         1 7JO      -0.093000
      2 C5          -2.9370    -0.6590     0.1580 cp         1 7JO      -0.040000
      3 C6          -3.1830    -0.6490     1.5310 ca         1 7JO      -0.093000
      4 C7          -2.1320    -1.7270    -0.4630 cp         1 7JO      -0.046000
      5 C8          -2.4900    -2.2670    -1.7000 ca         1 7JO      -0.149000
      6 C10         -0.5600    -3.7290    -1.6610 ca         1 7JO       0.177100
      7 C20          0.2260     2.5170    -0.4990 ca         1 7JO       0.466800
      8 C21          2.3850     1.2550    -0.5930 c5         1 7JO       0.260800
      9 C22          1.0970     2.0340     1.4480 cc         1 7JO       0.399700
     10 C26          3.7580     1.8910    -0.3580 c5         1 7JO       0.077100
     11 C28         -1.7260     3.6770     0.1830 ca         1 7JO       0.779200
     12 C1          -3.9270     0.3610     2.1210 ca         1 7JO      -0.166000
     13 C2          -4.4290     1.3670     1.3190 ca         1 7JO       0.124900
     14 C3          -4.2070     1.3950    -0.0430 ca         1 7JO      -0.166000
     15 C9          -1.7240    -3.2540    -2.2880 ca         1 7JO       0.031100
     16 C11         -0.1910    -3.1900    -0.4320 ca         1 7JO      -0.163600
     17 C12         -0.9870    -2.2050     0.1560 ca         1 7JO      -0.089000
     18 F13         -5.1520     2.3490     1.8830 f          1 7JO      -0.151900
     19 C14          1.0860    -3.6120     0.2320 c          1 7JO       0.690700
     20 N15          1.7560    -2.5840     0.7800 ns         1 7JO      -0.576900
     21 O16          1.4700    -4.7720     0.2620 o          1 7JO      -0.583100
     22 O17          0.2050    -4.6580    -2.2560 oh         1 7JO      -0.463100
     23 O18         -2.0130    -3.8240    -3.4780 oh         1 7JO      -0.518100
     24 N19          1.2970     1.9120     0.0980 na         1 7JO      -0.273000
     25 C23         -0.5560     2.9860     0.5440 ca         1 7JO      -0.230200
     26 N24         -0.0310     2.6410    -1.7980 nb         1 7JO      -0.746000
     27 O25          2.4780    -0.0730    -0.1520 os         1 7JO      -0.418600
     28 N27          0.0060     2.6700     1.7530 nd         1 7JO      -0.545100
     29 C29         -1.1610     3.2930    -2.0120 ca         1 7JO       0.708900
     30 C30          3.7530    -0.3670     0.4230 c5         1 7JO       0.146100
     31 C31          4.3410     1.0050     0.7530 c5         1 7JO       0.068100
     32 O32          4.4940     1.7470    -1.5420 oh         1 7JO      -0.578800
     33 N33         -1.9990     3.8110    -1.1190 nb         1 7JO      -0.829000
     34 N34         -2.5500     4.2200     1.0830 nv         1 7JO      -0.944500
     35 C35          3.5950    -1.2590     1.6420 c3         1 7JO      -0.100400
     36 O36          5.7380     0.9450     0.7500 oh         1 7JO      -0.581800
     37 C37          3.0740    -2.6740     1.3920 c3         1 7JO       0.131700
     38 C38          3.0380    -3.4470     2.7060 c3         1 7JO      -0.105100
     39 H1          -3.2600     0.4140    -1.6790 ha         1 7JO       0.139000
     40 H2          -2.8070    -1.4510     2.1540 ha         1 7JO       0.139000
     41 H3          -3.3900    -1.9280    -2.2030 ha         1 7JO       0.135000
     42 H4           2.1260     1.2930    -1.6540 h2         1 7JO       0.135700
     43 H5           1.7880     1.6280     2.1710 h5         1 7JO       0.061800
     44 H6           3.6690     2.9420    -0.0580 h1         1 7JO       0.071700
     45 H7          -4.1200     0.3580     3.1860 ha         1 7JO       0.152500
     46 H8          -4.5930     2.2070    -0.6470 ha         1 7JO       0.152500
     47 H9          -0.6970    -1.7910     1.1140 ha         1 7JO       0.143000
     48 H10          1.4460    -1.6580     0.5320 hn         1 7JO       0.331500
     49 H11         -0.1300    -4.8440    -3.1420 ho         1 7JO       0.443000
     50 H12         -2.7500    -3.3760    -3.9080 ho         1 7JO       0.438000
     51 H13         -1.4440     3.4300    -3.0500 h5         1 7JO       0.046100
     52 H14          4.3820    -0.8660    -0.3250 h1         1 7JO       0.086700
     53 H15          3.9620     1.3430     1.7260 h1         1 7JO       0.048700
     54 H16          5.4260     1.6730    -1.3010 ho         1 7JO       0.428000
     55 H17         -3.4250     4.6160     0.7850 hn         1 7JO       0.451300
     56 H18         -2.4240     4.0440     2.0640 hn         1 7JO       0.451300
     57 H19          4.5820    -1.3450     2.1050 hc         1 7JO       0.057700
     58 H20          2.9520    -0.7600     2.3760 hc         1 7JO       0.057700
     59 H21          6.0840     1.6900     1.2520 ho         1 7JO       0.419000
     60 H22          3.7540    -3.1840     0.7000 h1         1 7JO       0.059700
     61 H23          4.0400    -3.5030     3.1350 hc         1 7JO       0.046367
     62 H24          2.3880    -2.9490     3.4270 hc         1 7JO       0.046367
     63 H25          2.6790    -4.4640     2.5630 hc         1 7JO       0.046367
@<TRIPOS>BOND
     1     1     2 ar  
     2     1    14 ar  
     3     1    39 1   
     4     2     3 ar  
     5     2     4 1   
     6     3    12 ar  
     7     3    40 1   
     8     4     5 ar  
     9     4    17 ar  
    10     5    15 ar  
    11     5    41 1   
    12     6    15 ar  
    13     6    16 ar  
    14     6    22 1   
    15     7    24 1   
    16     7    25 ar  
    17     7    26 ar  
    18     8    10 1   
    19     8    24 1   
    20     8    27 1   
    21     8    42 1   
    22     9    24 1   
    23     9    28 2   
    24     9    43 1   
    25    10    31 1   
    26    10    32 1   
    27    10    44 1   
    28    11    25 ar  
    29    11    33 ar  
    30    11    34 1   
    31    12    13 ar  
    32    12    45 1   
    33    13    14 ar  
    34    13    18 1   
    35    14    46 1   
    36    15    23 1   
    37    16    17 ar  
    38    16    19 1   
    39    17    47 1   
    40    19    20 1   
    41    19    21 2   
    42    20    37 1   
    43    20    48 1   
    44    22    49 1   
    45    23    50 1   
    46    25    28 1   
    47    26    29 ar  
    48    27    30 1   
    49    29    33 ar  
    50    29    51 1   
    51    30    31 1   
    52    30    35 1   
    53    30    52 1   
    54    31    36 1   
    55    31    53 1   
    56    32    54 1   
    57    34    55 1   
    58    34    56 1   
    59    35    37 1   
    60    35    57 1   
    61    35    58 1   
    62    36    59 1   
    63    37    38 1   
    64    37    60 1   
    65    38    61 1   
    66    38    62 1   
    67    38    63 1   
@<TRIPOS>SUBSTRUCTURE
     1 7JO         1 TEMP              0 ****  ****    0 ROOT
