@<TRIPOS>MOLECULE
7JP
   56    60     1     0     0
SMALL
No Charge or Current Charge


@<TRIPOS>ATOM
      1 C4           4.1930     2.3470    -1.0330 ca         1 7JP       0.161100
      2 C6           2.7090     1.0550     0.3730 ca         1 7JP      -0.153600
      3 C7           2.9510     2.2210    -0.3720 ca         1 7JP       0.079400
      4 C15         -3.3100     1.4340     1.3120 c3         1 7JP      -0.072400
      5 C17         -5.8170     0.9180     1.0500 c3         1 7JP       0.078600
      6 C20         -8.6220     0.3590    -1.3210 cc         1 7JP      -0.218200
      7 C21         -7.1690    -0.8780    -0.1180 ca         1 7JP      -0.023200
      8 C22         -8.2060    -0.9770    -0.9970 ca         1 7JP      -0.158800
      9 C26         -6.5620    -2.0450     0.3660 ca         1 7JP      -0.178000
     10 C28          6.8060    -1.2200    -1.2300 ca         1 7JP      -0.070000
     11 C1           3.6900     0.0410     0.4510 ca         1 7JP      -0.077000
     12 C2           4.9370     0.1630    -0.2100 cp         1 7JP      -0.006000
     13 C3           5.1680     1.3420    -0.9570 ca         1 7JP      -0.123000
     14 O5           4.4370     3.4770    -1.7550 oh         1 7JP      -0.526100
     15 N8           2.0280     3.2780    -0.5010 nc         1 7JP      -0.644100
     16 C9           0.8740     3.0850     0.1520 cd         1 7JP       0.504800
     17 N10          0.5230     1.9810     0.9120 n          1 7JP      -0.336300
     18 C11          1.4030     0.9110     1.0690 c          1 7JP       0.573600
     19 O12          1.1240    -0.0820     1.7290 o          1 7JP      -0.529000
     20 C14         -1.9240     1.4650     0.6310 c3         1 7JP      -0.096400
     21 C16         -4.4330     0.9510     0.3690 c3         1 7JP      -0.100400
     22 N18         -6.8850     0.4540     0.1510 na         1 7JP      -0.088700
     23 C19         -7.7970     1.2250    -0.6070 cd         1 7JP      -0.164100
     24 C23         -8.6760    -2.2300    -1.4250 ca         1 7JP       0.390900
     25 N24         -8.1090    -3.3800    -0.9730 nb         1 7JP      -0.691000
     26 C25         -7.0720    -3.2780    -0.0950 ca         1 7JP       0.340900
     27 C27          5.9720    -0.9150    -0.1220 cp         1 7JP      -0.057000
     28 C29          7.7790    -2.2320    -1.1480 ca         1 7JP      -0.153000
     29 C30          7.9340    -2.9570     0.0420 ca         1 7JP       0.177000
     30 C31          7.1250    -2.6760     1.1510 ca         1 7JP      -0.153000
     31 C32          6.1510    -1.6640     1.0700 ca         1 7JP      -0.070000
     32 F33          8.8690    -3.9290     0.1200 f          1 7JP      -0.177000
     33 H1          -0.7660     1.2970     2.4600 h1         1 7JP       0.064700
     34 H2          -1.0430     2.9550     1.9310 h1         1 7JP       0.064700
     35 H3          -3.2660     0.7740     2.1880 hc         1 7JP       0.042200
     36 H4          -3.5540     2.4390     1.6790 hc         1 7JP       0.042200
     37 H5          -5.7810     0.2580     1.9270 h1         1 7JP       0.058200
     38 H6          -6.0720     1.9250     1.4020 h1         1 7JP       0.058200
     39 H8          -5.7320    -2.0160     1.0650 ha         1 7JP       0.122000
     40 H9           6.6900    -0.6770    -2.1650 ha         1 7JP       0.121500
     41 H10          3.4800    -0.8620     1.0200 ha         1 7JP       0.141000
     42 H11          6.1140     1.4860    -1.4700 ha         1 7JP       0.136000
     43 H12          3.6170     4.0150    -1.6520 ho         1 7JP       0.496000
     44 H13          0.1220     3.8630     0.0910 h5         1 7JP       0.048800
     45 H14         -1.9660     2.1240    -0.2460 hc         1 7JP       0.056200
     46 H15         -1.6770     0.4600     0.2660 hc         1 7JP       0.056200
     47 H16         -4.4820     1.6100    -0.5070 hc         1 7JP       0.057200
     48 H17         -4.1890    -0.0530    -0.0000 hc         1 7JP       0.057200
     49 H18         -7.7900     2.3110    -0.5830 h4         1 7JP       0.211000
     50 H19         -9.5040    -2.3200    -2.1270 h4         1 7JP       0.019100
     51 H20         -6.6380    -4.2160     0.2490 h4         1 7JP       0.015100
     52 H21          8.4080    -2.4570    -2.0050 ha         1 7JP       0.134000
     53 H22          7.2530    -3.2390     2.0720 ha         1 7JP       0.134000
     54 H23          5.5410    -1.4500     1.9450 ha         1 7JP       0.121500
     55 C13         -0.8010     1.9450     1.5740 c3         1 7JP       0.092000
     56 H7          -9.4240     0.6580    -1.9950 ha         1 7JP       0.210000
@<TRIPOS>BOND
     1     1     3 ar  
     2     1    13 ar  
     3     1    14 1   
     4     2     3 ar  
     5     2    11 ar  
     6     2    18 1   
     7     3    15 1   
     8     4    20 1   
     9     4    21 1   
    10     4    35 1   
    11     4    36 1   
    12     5    21 1   
    13     5    22 1   
    14     5    37 1   
    15     5    38 1   
    16     6     8 1   
    17     6    23 2   
    18     6    56 1   
    19     7     8 ar  
    20     7     9 ar  
    21     7    22 1   
    22     8    24 ar  
    23     9    26 ar  
    24     9    39 1   
    25    10    27 ar  
    26    10    28 ar  
    27    10    40 1   
    28    11    12 ar  
    29    11    41 1   
    30    12    13 ar  
    31    12    27 1   
    32    13    42 1   
    33    14    43 1   
    34    15    16 2   
    35    16    17 1   
    36    16    44 1   
    37    17    18 1   
    38    17    55 1   
    39    18    19 2   
    40    20    45 1   
    41    20    46 1   
    42    20    55 1   
    43    21    47 1   
    44    21    48 1   
    45    22    23 1   
    46    23    49 1   
    47    24    25 ar  
    48    24    50 1   
    49    25    26 ar  
    50    26    51 1   
    51    27    31 ar  
    52    28    29 ar  
    53    28    52 1   
    54    29    30 ar  
    55    29    32 1   
    56    30    31 ar  
    57    30    53 1   
    58    31    54 1   
    59    33    55 1   
    60    34    55 1   
@<TRIPOS>SUBSTRUCTURE
     1 7JP         1 TEMP              0 ****  ****    0 ROOT
