@<TRIPOS>MOLECULE
7JP
   56    60     1     0     0
SMALL
bcc


@<TRIPOS>ATOM
      1 C4           4.1090     2.3150    -1.0700 ca         1 7JP       0.161100
      2 C6           2.6320     1.0610     0.3800 ca         1 7JP      -0.153600
      3 C7           2.8820     2.1990    -0.3870 ca         1 7JP       0.079400
      4 C15         -3.2210     1.3920     1.2890 c3         1 7JP      -0.072400
      5 C17         -5.6590     0.8090     1.0830 c3         1 7JP       0.049300
      6 C20         -8.4790     0.4440    -1.1950 cc         1 7JP      -0.168200
      7 C21         -7.0110    -0.9230    -0.1090 ca         1 7JP      -0.023200
      8 C22         -8.1060    -0.9210    -1.0000 ca         1 7JP      -0.224100
      9 C26         -6.4170    -2.1230     0.2770 ca         1 7JP      -0.261300
     10 C28          6.6150    -1.2250    -1.1900 ca         1 7JP      -0.088000
     11 C1           3.5820     0.0440     0.4780 ca         1 7JP      -0.095000
     12 C2           4.7910     0.1630    -0.1900 cp         1 7JP      -0.006000
     13 C3           5.0440     1.3080    -0.9640 ca         1 7JP      -0.141000
     14 O5           4.3620     3.4040    -1.8060 oh         1 7JP      -0.487100
     15 N8           1.9880     3.2290    -0.5140 nc         1 7JP      -0.644100
     16 C9           0.8780     3.1140     0.1150 cd         1 7JP       0.504800
     17 N10          0.5210     2.0560     0.8930 n          1 7JP      -0.403300
     18 C11          1.3470     0.9560     1.0660 c          1 7JP       0.716100
     19 O12          1.0020     0.0030     1.7400 o          1 7JP      -0.604500
     20 C14         -1.8550     1.4110     0.6150 c3         1 7JP      -0.096400
     21 C16         -4.3150     0.8660     0.3680 c3         1 7JP      -0.100400
     22 N18         -6.7390     0.3660     0.2270 na         1 7JP      -0.059400
     23 C19         -7.6220     1.1830    -0.4370 cd         1 7JP      -0.114100
     24 C23         -8.5650    -2.1540    -1.4620 ca         1 7JP       0.456200
     25 N24         -8.0110    -3.2970    -1.1010 nb         1 7JP      -0.691000
     26 C25         -6.9660    -3.2700    -0.2560 ca         1 7JP       0.406200
     27 C27          5.8110    -0.9010    -0.0960 cp         1 7JP      -0.057000
     28 C29          7.5720    -2.2240    -1.1080 ca         1 7JP      -0.171000
     29 C30          7.7200    -2.9030     0.0860 ca         1 7JP       0.141900
     30 C31          6.9450    -2.6140     1.1920 ca         1 7JP      -0.171000
     31 C32          5.9940    -1.6110     1.0920 ca         1 7JP      -0.088000
     32 F33          8.6460    -3.8700     0.1730 f          1 7JP      -0.141900
     33 H1          -0.7380     1.5460     2.4660 h1         1 7JP       0.064700
     34 H2          -1.0710     3.0950     1.7160 h1         1 7JP       0.064700
     35 H3          -3.1720     0.7750     2.1920 hc         1 7JP       0.042200
     36 H4          -3.4830     2.4020     1.6190 hc         1 7JP       0.042200
     37 H5          -5.6060     0.1410     1.9450 h1         1 7JP       0.058200
     38 H6          -5.9260     1.7950     1.4650 h1         1 7JP       0.058200
     39 H8          -5.5720    -2.1740     0.9510 ha         1 7JP       0.140000
     40 H9           6.4870    -0.7070    -2.1310 ha         1 7JP       0.139500
     41 H10          3.3550    -0.8390     1.0600 ha         1 7JP       0.159000
     42 H11          5.9930     1.4200    -1.4740 ha         1 7JP       0.154000
     43 H12          3.5930     3.9930    -1.7510 ho         1 7JP       0.457000
     44 H13          0.1420     3.9060     0.0450 h5         1 7JP       0.048800
     45 H14         -1.9140     1.9670    -0.3260 hc         1 7JP       0.056200
     46 H15         -1.5500     0.3930     0.3620 hc         1 7JP       0.056200
     47 H16         -4.4000     1.5130    -0.5090 hc         1 7JP       0.057200
     48 H17         -4.0460    -0.1290     0.0040 hc         1 7JP       0.057200
     49 H18         -7.5690     2.2520    -0.3030 h4         1 7JP       0.161000
     50 H19         -9.4090    -2.2080    -2.1440 h4         1 7JP       0.019100
     51 H20         -6.5450    -4.2340     0.0070 h4         1 7JP       0.015100
     52 H21          8.1870    -2.4730    -1.9630 ha         1 7JP       0.152000
     53 H22          7.0850    -3.1550     2.1190 ha         1 7JP       0.152000
     54 H23          5.4000    -1.3700     1.9640 ha         1 7JP       0.139500
     55 C13         -0.8060     2.0570     1.5090 c3         1 7JP       0.092000
     56 H7          -9.2790     0.8260    -1.8080 ha         1 7JP       0.160000
@<TRIPOS>BOND
     1     1     3 ar  
     2     1    13 ar  
     3     1    14 1   
     4     2     3 ar  
     5     2    11 ar  
     6     2    18 1   
     7     3    15 1   
     8     4    20 1   
     9     4    21 1   
    10     4    35 1   
    11     4    36 1   
    12     5    21 1   
    13     5    22 1   
    14     5    37 1   
    15     5    38 1   
    16     6     8 1   
    17     6    23 2   
    18     6    56 1   
    19     7     8 ar  
    20     7     9 ar  
    21     7    22 1   
    22     8    24 ar  
    23     9    26 ar  
    24     9    39 1   
    25    10    27 ar  
    26    10    28 ar  
    27    10    40 1   
    28    11    12 ar  
    29    11    41 1   
    30    12    13 ar  
    31    12    27 1   
    32    13    42 1   
    33    14    43 1   
    34    15    16 2   
    35    16    17 1   
    36    16    44 1   
    37    17    18 1   
    38    17    55 1   
    39    18    19 2   
    40    20    45 1   
    41    20    46 1   
    42    20    55 1   
    43    21    47 1   
    44    21    48 1   
    45    22    23 1   
    46    23    49 1   
    47    24    25 ar  
    48    24    50 1   
    49    25    26 ar  
    50    26    51 1   
    51    27    31 ar  
    52    28    29 ar  
    53    28    52 1   
    54    29    30 ar  
    55    29    32 1   
    56    30    31 ar  
    57    30    53 1   
    58    31    54 1   
    59    33    55 1   
    60    34    55 1   
@<TRIPOS>SUBSTRUCTURE
     1 7JP         1 TEMP              0 ****  ****    0 ROOT
