@<TRIPOS>MOLECULE
7JQ
   27    29     1     0     0
SMALL
No Charge or Current Charge


@<TRIPOS>ATOM
      1 C4           2.0200    -0.8020    -0.1850 ca         1 7JQ      -0.101000
      2 C5           2.6160     0.4600     0.0440 ca         1 7JQ      -0.055000
      3 C7           0.6210    -0.9470    -0.2000 ca         1 7JQ      -0.114000
      4 C8          -0.2300     0.1640     0.0130 cp         1 7JQ       0.019000
      5 C10          1.7720     1.5720     0.2580 ca         1 7JQ       0.170100
      6 C13         -2.3430    -1.1580     0.5040 ca         1 7JQ      -0.068500
      7 C15         -4.5430    -0.2720    -0.0300 ca         1 7JQ       0.179000
      8 C17         -2.5550     1.0370    -0.5220 ca         1 7JQ      -0.068500
      9 C1           4.6900    -0.5440    -0.1620 ca         1 7JQ       0.123900
     10 N2           4.2080    -1.7830    -0.3900 nb         1 7JQ      -0.170000
     11 C3           2.8670    -1.9080    -0.4010 ca         1 7JQ       0.132900
     12 N6           3.9660     0.5760     0.0540 nb         1 7JQ      -0.188000
     13 C9           0.3760     1.4240     0.2410 ca         1 7JQ      -0.147000
     14 O11          2.3050     2.8080     0.4860 oh         1 7JQ      -0.521100
     15 C12         -1.7200     0.0130    -0.0020 cp         1 7JQ      -0.061000
     16 C14         -3.7420    -1.2990     0.4900 ca         1 7JQ      -0.153500
     17 C16         -3.9540     0.8950    -0.5360 ca         1 7JQ      -0.153500
     18 H1           0.1900    -1.9270    -0.3920 ha         1 7JQ       0.125000
     19 H2          -1.7380    -1.9580     0.9240 ha         1 7JQ       0.121000
     20 H3          -2.1140     1.9430    -0.9310 ha         1 7JQ       0.121000
     21 H4           5.7730    -0.4350    -0.1520 h5         1 7JQ       0.053100
     22 H5           2.4690    -2.9050    -0.5840 h4         1 7JQ       0.027100
     23 H6          -0.2430     2.2970     0.4230 ha         1 7JQ       0.136000
     24 H7           3.2830     2.7130     0.4620 ho         1 7JQ       0.499000
     25 H8          -4.2050    -2.2000     0.8840 ha         1 7JQ       0.134500
     26 H9          -4.5800     1.6850    -0.9410 ha         1 7JQ       0.134500
     27 F18         -5.8860    -0.4080    -0.0440 f          1 7JQ      -0.176000
@<TRIPOS>BOND
     1     1     2 ar  
     2     1     3 ar  
     3     1    11 ar  
     4     2     5 ar  
     5     2    12 ar  
     6     3     4 ar  
     7     3    18 1   
     8     4    13 ar  
     9     4    15 1   
    10     5    13 ar  
    11     5    14 1   
    12     6    15 ar  
    13     6    16 ar  
    14     6    19 1   
    15     7    16 ar  
    16     7    17 ar  
    17     7    27 1   
    18     8    15 ar  
    19     8    17 ar  
    20     8    20 1   
    21     9    10 ar  
    22     9    12 ar  
    23     9    21 1   
    24    10    11 ar  
    25    11    22 1   
    26    13    23 1   
    27    14    24 1   
    28    16    25 1   
    29    17    26 1   
@<TRIPOS>SUBSTRUCTURE
     1 7JQ         1 TEMP              0 ****  ****    0 ROOT
