@<TRIPOS>MOLECULE
7JQ
   27    29     1     0     0
SMALL
bcc


@<TRIPOS>ATOM
      1 C4           1.9660    -0.8370    -0.1950 ca         1 7JQ      -0.231600
      2 C5           2.5560     0.4180     0.0360 ca         1 7JQ       0.338600
      3 C7           0.5680    -0.9810    -0.2100 ca         1 7JQ      -0.132000
      4 C8          -0.2290     0.1200     0.0090 cp         1 7JQ       0.019000
      5 C10          1.7240     1.5480     0.2570 ca         1 7JQ       0.104800
      6 C13         -2.3250    -1.1390     0.5130 ca         1 7JQ      -0.086500
      7 C15         -4.4620    -0.2410    -0.0280 ca         1 7JQ       0.143900
      8 C17         -2.5020     1.0160    -0.5190 ca         1 7JQ      -0.086500
      9 C1           4.6270    -0.4660    -0.1540 ca         1 7JQ       0.649900
     10 N2           4.1780    -1.7160    -0.3910 nb         1 7JQ      -0.696000
     11 C3           2.8830    -1.8900    -0.4100 ca         1 7JQ       0.461200
     12 N6           3.8930     0.5890     0.0560 nb         1 7JQ      -0.714000
     13 C9           0.3630     1.3860     0.2440 ca         1 7JQ      -0.165000
     14 O11          2.2790     2.7420     0.4830 oh         1 7JQ      -0.482100
     15 C12         -1.7010    -0.0000     0.0030 cp         1 7JQ      -0.061000
     16 C14         -3.7050    -1.2680     0.5020 ca         1 7JQ      -0.171500
     17 C16         -3.8840     0.9040    -0.5400 ca         1 7JQ      -0.171500
     18 H1           0.1380    -1.9530    -0.4180 ha         1 7JQ       0.143000
     19 H2          -1.7330    -1.9340     0.9470 ha         1 7JQ       0.139000
     20 H3          -2.0490     1.9050    -0.9380 ha         1 7JQ       0.139000
     21 H4           5.7030    -0.3380    -0.1400 h5         1 7JQ       0.053100
     22 H5           2.5140    -2.8930    -0.6000 h4         1 7JQ       0.027100
     23 H6          -0.2670     2.2450     0.4370 ha         1 7JQ       0.154000
     24 H7           3.2440     2.6400     0.4570 ho         1 7JQ       0.460000
     25 H8          -4.1810    -2.1510     0.9090 ha         1 7JQ       0.152500
     26 H9          -4.4960     1.6930    -0.9550 ha         1 7JQ       0.152500
     27 F18         -5.7980    -0.3590    -0.0430 f          1 7JQ      -0.140900
@<TRIPOS>BOND
     1     1     2 ar  
     2     1     3 ar  
     3     1    11 ar  
     4     2     5 ar  
     5     2    12 ar  
     6     3     4 ar  
     7     3    18 1   
     8     4    13 ar  
     9     4    15 1   
    10     5    13 ar  
    11     5    14 1   
    12     6    15 ar  
    13     6    16 ar  
    14     6    19 1   
    15     7    16 ar  
    16     7    17 ar  
    17     7    27 1   
    18     8    15 ar  
    19     8    17 ar  
    20     8    20 1   
    21     9    10 ar  
    22     9    12 ar  
    23     9    21 1   
    24    10    11 ar  
    25    11    22 1   
    26    13    23 1   
    27    14    24 1   
    28    16    25 1   
    29    17    26 1   
@<TRIPOS>SUBSTRUCTURE
     1 7JQ         1 TEMP              0 ****  ****    0 ROOT
