@<TRIPOS>MOLECULE
7JR
   26    27     1     0     0
SMALL
No Charge or Current Charge


@<TRIPOS>ATOM
      1 N1           1.8900    -1.1690    -0.0180 n          1 7JR      -0.247000
      2 C4           0.5550     1.3140     0.2030 cc         1 7JR      -0.163000
      3 C5          -0.2010     0.1040    -0.0010 cc         1 7JR      -0.079200
      4 C6           0.4930    -1.0970    -0.0730 cd         1 7JR      -0.076400
      5 C7           2.5750    -2.4780    -0.1220 c3         1 7JR       0.067300
      6 C10         -1.6820     0.0420    -0.0200 ca         1 7JR      -0.030800
      7 C13         -4.5260    -0.0310    -0.0480 ca         1 7JR      -0.107000
      8 C15         -2.3830    -1.0610    -0.5730 ca         1 7JR      -0.103500
      9 C2           2.6900    -0.0150     0.1520 c          1 7JR       0.508200
     10 C3           1.9270     1.2670     0.2670 cd         1 7JR       0.009900
     11 O8           3.9160    -0.0550     0.2060 o          1 7JR      -0.586000
     12 O9           2.6910     2.3790     0.4390 oh         1 7JR      -0.522100
     13 C11         -2.4490     1.1090     0.5070 ca         1 7JR      -0.103500
     14 C12         -3.8540     1.0720     0.4970 ca         1 7JR      -0.108000
     15 C14         -3.7890    -1.0950    -0.5850 ca         1 7JR      -0.108000
     16 H41          0.0520     2.2720     0.2800 ha         1 7JR       0.206000
     17 H61          0.0310    -2.0750    -0.1500 h4         1 7JR       0.206000
     18 H71          3.2910    -2.4560    -0.9530 h1         1 7JR       0.059367
     19 H72          3.1140    -2.6880     0.8110 h1         1 7JR       0.059367
     20 H73          1.8530    -3.2850    -0.3030 h1         1 7JR       0.059367
     21 H131        -5.6140    -0.0590    -0.0580 ha         1 7JR       0.114000
     22 H151        -1.8580    -1.8920    -1.0320 ha         1 7JR       0.113000
     23 H91          3.6280     2.0710     0.4480 ho         1 7JR       0.491000
     24 H111        -1.9690     1.9720     0.9590 ha         1 7JR       0.113000
     25 H121        -4.4220     1.9000     0.9160 ha         1 7JR       0.114000
     26 H141        -4.3060    -1.9480    -1.0190 ha         1 7JR       0.114000
@<TRIPOS>BOND
     1     1     4 1   
     2     1     5 1   
     3     1     9 1   
     4     2     3 1   
     5     2    10 2   
     6     2    16 1   
     7     3     4 2   
     8     3     6 1   
     9     4    17 1   
    10     5    18 1   
    11     5    19 1   
    12     5    20 1   
    13     6     8 ar  
    14     6    13 ar  
    15     7    14 ar  
    16     7    15 ar  
    17     7    21 1   
    18     8    15 ar  
    19     8    22 1   
    20     9    10 1   
    21     9    11 2   
    22    10    12 1   
    23    12    23 1   
    24    13    14 ar  
    25    13    24 1   
    26    14    25 1   
    27    15    26 1   
@<TRIPOS>SUBSTRUCTURE
     1 7JR         1 TEMP              0 ****  ****    0 ROOT
