@<TRIPOS>MOLECULE
7JR
   26    27     1     0     0
SMALL
bcc


@<TRIPOS>ATOM
      1 N1           1.8810    -1.1420     0.0470 n          1 7JR      -0.314000
      2 C4           0.5290     1.2540     0.0380 cc         1 7JR      -0.113000
      3 C5          -0.1950     0.0290     0.0210 cc         1 7JR      -0.079200
      4 C6           0.5160    -1.1280     0.0310 cd         1 7JR      -0.026400
      5 C7           2.5410    -2.4430     0.0610 c3         1 7JR       0.067300
      6 C10         -1.6690     0.0150     0.0050 ca         1 7JR      -0.030800
      7 C13         -4.4710    -0.0110    -0.0040 ca         1 7JR      -0.125000
      8 C15         -2.3730    -0.9560    -0.7110 ca         1 7JR      -0.121500
      9 C2           2.6350    -0.0010     0.0590 c          1 7JR       0.650700
     10 C3           1.8840     1.2410     0.0590 cd         1 7JR       0.009900
     11 O8           3.8690     0.0040     0.0680 o          1 7JR      -0.661500
     12 O9           2.6100     2.3670     0.0650 oh         1 7JR      -0.483100
     13 C11         -2.3950     0.9770     0.7090 ca         1 7JR      -0.121500
     14 C12         -3.7830     0.9650     0.7040 ca         1 7JR      -0.126000
     15 C14         -3.7590    -0.9720    -0.7110 ca         1 7JR      -0.126000
     16 H41          0.0000     2.2000     0.0150 ha         1 7JR       0.156000
     17 H61          0.0460    -2.1010     0.0480 h4         1 7JR       0.156000
     18 H71          3.6150    -2.3110     0.1090 h1         1 7JR       0.059367
     19 H72          2.2120    -3.0120     0.9290 h1         1 7JR       0.059367
     20 H73          2.2900    -2.9940    -0.8430 h1         1 7JR       0.059367
     21 H131        -5.5530    -0.0210    -0.0090 ha         1 7JR       0.132000
     22 H151        -1.8340    -1.6960    -1.2910 ha         1 7JR       0.131000
     23 H91          3.5470     2.1160     0.0640 ho         1 7JR       0.452000
     24 H111        -1.8760     1.7350     1.2820 ha         1 7JR       0.131000
     25 H121        -4.3260     1.7180     1.2590 ha         1 7JR       0.132000
     26 H141        -4.2850    -1.7320    -1.2740 ha         1 7JR       0.132000
@<TRIPOS>BOND
     1     1     4 1   
     2     1     5 1   
     3     1     9 1   
     4     2     3 1   
     5     2    10 2   
     6     2    16 1   
     7     3     4 2   
     8     3     6 1   
     9     4    17 1   
    10     5    18 1   
    11     5    19 1   
    12     5    20 1   
    13     6     8 ar  
    14     6    13 ar  
    15     7    14 ar  
    16     7    15 ar  
    17     7    21 1   
    18     8    15 ar  
    19     8    22 1   
    20     9    10 1   
    21     9    11 2   
    22    10    12 1   
    23    12    23 1   
    24    13    14 ar  
    25    13    24 1   
    26    14    25 1   
    27    15    26 1   
@<TRIPOS>SUBSTRUCTURE
     1 7JR         1 TEMP              0 ****  ****    0 ROOT
