@<TRIPOS>MOLECULE
7JS
   28    30     1     0     0
SMALL
No Charge or Current Charge


@<TRIPOS>ATOM
      1 C4          -0.4380     1.4100     0.2430 ca         1 7JS      -0.161000
      2 C5          -2.0630    -0.8410    -0.1770 ca         1 7JS      -0.039000
      3 C6          -0.6610    -0.9650    -0.1910 ca         1 7JS      -0.131000
      4 C7           1.6710     0.0200     0.0040 cp         1 7JS      -0.057000
      5 C10          2.3060    -1.1440     0.5120 ca         1 7JS      -0.070500
      6 C13          3.8960     0.9220    -0.5340 ca         1 7JS      -0.154000
      7 C17         -4.8030    -0.5260    -0.1390 ca         1 7JS       0.354900
      8 C12          4.4960    -0.2380    -0.0250 ca         1 7JS       0.177000
      9 C9           2.4950     1.0510    -0.5190 ca         1 7JS      -0.070500
     10 C14          3.7060    -1.2710     0.4980 ca         1 7JS      -0.154000
     11 C1           0.1800     0.1560     0.0190 cp         1 7JS       0.020000
     12 C2          -1.8360     1.5370     0.2580 ca         1 7JS       0.174100
     13 O11         -2.4010     2.7600     0.4820 oh         1 7JS      -0.524100
     14 C16         -2.8760    -1.9700    -0.3910 ca         1 7JS      -0.063000
     15 C18         -4.2690    -1.8040    -0.3700 ca         1 7JS      -0.158000
     16 N8          -4.0290     0.5670     0.0670 nb         1 7JS      -0.687000
     17 C3          -2.6750     0.4170     0.0490 ca         1 7JS       0.189000
     18 H1           0.1700     2.2910     0.4220 ha         1 7JS       0.134000
     19 H2          -0.2170    -1.9390    -0.3800 ha         1 7JS       0.120000
     20 H3           1.7090    -1.9490     0.9340 ha         1 7JS       0.121000
     21 H4           4.5140     1.7180    -0.9400 ha         1 7JS       0.133500
     22 H5          -5.8810    -0.3700    -0.1170 h4         1 7JS       0.022100
     23 H6           2.0450     1.9510    -0.9300 ha         1 7JS       0.121000
     24 H7           4.1780    -2.1660     0.8940 ha         1 7JS       0.133500
     25 H8          -3.3730     2.6000     0.4470 ho         1 7JS       0.498000
     26 H9          -2.4390    -2.9500    -0.5690 ha         1 7JS       0.122000
     27 H10         -4.9330    -2.6490    -0.5300 ha         1 7JS       0.126000
     28 F15          5.8410    -0.3600    -0.0380 f          1 7JS      -0.177000
@<TRIPOS>BOND
     1     1    11 ar  
     2     1    12 ar  
     3     1    18 1   
     4     2     3 ar  
     5     2    14 ar  
     6     2    17 ar  
     7     3    11 ar  
     8     3    19 1   
     9     4     5 ar  
    10     4     9 ar  
    11     4    11 1   
    12     5    10 ar  
    13     5    20 1   
    14     6     8 ar  
    15     6     9 ar  
    16     6    21 1   
    17     7    15 ar  
    18     7    16 ar  
    19     7    22 1   
    20     8    10 ar  
    21     8    28 1   
    22     9    23 1   
    23    10    24 1   
    24    12    13 1   
    25    12    17 ar  
    26    13    25 1   
    27    14    15 ar  
    28    14    26 1   
    29    15    27 1   
    30    16    17 ar  
@<TRIPOS>SUBSTRUCTURE
     1 7JS         1 TEMP              0 ****  ****    0 ROOT
