@<TRIPOS>MOLECULE
7JS
   28    30     1     0     0
SMALL
bcc


@<TRIPOS>ATOM
      1 C4          -0.4260     1.3730     0.2490 ca         1 7JS      -0.179000
      2 C5          -2.0140    -0.8860    -0.1870 ca         1 7JS      -0.104300
      3 C6          -0.6090    -0.9970    -0.1990 ca         1 7JS      -0.149000
      4 C7           1.6490     0.0060     0.0080 cp         1 7JS      -0.057000
      5 C10          2.2880    -1.1220     0.5260 ca         1 7JS      -0.088500
      6 C13          3.8230     0.9300    -0.5430 ca         1 7JS      -0.172000
      7 C17         -4.7290    -0.4620    -0.1330 ca         1 7JS       0.420200
      8 C12          4.4150    -0.2050    -0.0230 ca         1 7JS       0.141900
      9 C9           2.4400     1.0270    -0.5220 ca         1 7JS      -0.088500
     10 C14          3.6690    -1.2360     0.5150 ca         1 7JS      -0.172000
     11 C1           0.1760     0.1120     0.0170 cp         1 7JS       0.020000
     12 C2          -1.7900     1.5080     0.2610 ca         1 7JS       0.108800
     13 O11         -2.3680     2.6920     0.4850 oh         1 7JS      -0.485100
     14 C16         -2.8920    -1.9720    -0.4050 ca         1 7JS      -0.081000
     15 C18         -4.2420    -1.7620    -0.3780 ca         1 7JS      -0.241300
     16 N8          -3.9480     0.5660     0.0700 nb         1 7JS      -0.687000
     17 C3          -2.6150     0.3690     0.0420 ca         1 7JS       0.319600
     18 H1           0.1920     2.2410     0.4390 ha         1 7JS       0.152000
     19 H2          -0.1630    -1.9630    -0.4040 ha         1 7JS       0.138000
     20 H3           1.7050    -1.9200     0.9660 ha         1 7JS       0.139000
     21 H4           4.4260     1.7230    -0.9650 ha         1 7JS       0.151500
     22 H5          -5.7980    -0.2810    -0.1070 h4         1 7JS       0.022100
     23 H6           1.9760     1.9070    -0.9460 ha         1 7JS       0.139000
     24 H7           4.1550    -2.1100     0.9280 ha         1 7JS       0.151500
     25 H8          -3.3300     2.5580     0.4540 ho         1 7JS       0.459000
     26 H9          -2.4870    -2.9590    -0.5920 ha         1 7JS       0.140000
     27 H10         -4.9400    -2.5720    -0.5400 ha         1 7JS       0.144000
     28 F15          5.7520    -0.3080    -0.0390 f          1 7JS      -0.141900
@<TRIPOS>BOND
     1     1    11 ar  
     2     1    12 ar  
     3     1    18 1   
     4     2     3 ar  
     5     2    14 ar  
     6     2    17 ar  
     7     3    11 ar  
     8     3    19 1   
     9     4     5 ar  
    10     4     9 ar  
    11     4    11 1   
    12     5    10 ar  
    13     5    20 1   
    14     6     8 ar  
    15     6     9 ar  
    16     6    21 1   
    17     7    15 ar  
    18     7    16 ar  
    19     7    22 1   
    20     8    10 ar  
    21     8    28 1   
    22     9    23 1   
    23    10    24 1   
    24    12    13 1   
    25    12    17 ar  
    26    13    25 1   
    27    14    15 ar  
    28    14    26 1   
    29    15    27 1   
    30    16    17 ar  
@<TRIPOS>SUBSTRUCTURE
     1 7JS         1 TEMP              0 ****  ****    0 ROOT
