@<TRIPOS>MOLECULE
7JT
   50    53     1     0     0
SMALL
No Charge or Current Charge


@<TRIPOS>ATOM
      1 N1           6.0550     0.1110     0.0120 ns         1 7JT      -0.391400
      2 O2           7.0930    -0.8010    -0.4240 oh         1 7JT      -0.418100
      3 C3           5.1130     0.6030    -0.8840 c          1 7JT       0.602100
      4 O4           5.2420     0.5040    -2.0970 o          1 7JT      -0.566100
      5 C5           3.9200     1.3280    -0.2460 c3         1 7JT      -0.160400
      6 C6           2.5770     0.5510    -0.4030 c3         1 7JT      -0.087000
      7 C7           2.5950    -0.8200     0.3430 c3         1 7JT      -0.068400
      8 C12          1.4080     1.4180    -0.0060 cc         1 7JT       0.492300
      9 O13          1.2860     1.8340     1.2860 os         1 7JT      -0.097700
     10 N14          0.4100     1.7880    -0.7770 nd         1 7JT      -0.713000
     11 N15          0.0500     2.5140     1.3500 nc         1 7JT      -0.376300
     12 C16         -0.4060     2.4480     0.1100 cd         1 7JT       0.555300
     13 C17          1.3750    -1.7580     0.1080 c5         1 7JT      -0.065700
     14 C18          1.5710    -3.1750     0.7030 c5         1 7JT      -0.079900
     15 C19          0.0510    -1.3750     0.8320 c5         1 7JT      -0.079900
     16 C20         -0.8230    -2.6600     0.7050 c5         1 7JT      -0.078900
     17 C21          0.1880    -3.8130     0.4180 c5         1 7JT      -0.078900
     18 H1           5.8390     0.1020     1.0080 hn         1 7JT       0.338500
     19 H2           7.9190    -0.4070    -0.0560 ho         1 7JT       0.445000
     20 H3           4.1100     1.5000     0.8200 hc         1 7JT       0.073200
     21 H4           3.8150     2.2960    -0.7510 hc         1 7JT       0.073200
     22 H5           2.4560     0.3320    -1.4720 hc         1 7JT       0.109700
     23 H6           3.4940    -1.3650     0.0330 hc         1 7JT       0.052700
     24 H7           2.7170    -0.6400     1.4190 hc         1 7JT       0.052700
     25 H9           2.3850    -3.7260     0.2180 hc         1 7JT       0.045450
     26 H10          0.2290    -1.1230     1.8840 hc         1 7JT       0.045450
     27 H11         -0.4560    -0.5200     0.3780 hc         1 7JT       0.045450
     28 H12         -1.3950    -2.8390     1.6230 hc         1 7JT       0.042200
     29 H13          0.1160    -4.1410    -0.6270 hc         1 7JT       0.042200
     30 C2          -1.7760     2.9450    -0.2650 c3         1 7JT      -0.052400
     31 H8           1.2240    -1.8180    -0.9780 hc         1 7JT       0.056700
     32 H14          1.7900    -3.1440     1.7770 hc         1 7JT       0.045450
     33 H15         -1.5510    -2.5700    -0.1090 hc         1 7JT       0.042200
     34 H16          0.0030    -4.6950     1.0420 hc         1 7JT       0.042200
     35 H19         -1.9990     3.8530     0.3060 hc         1 7JT       0.077200
     36 H20         -1.7700     3.2530    -1.3170 hc         1 7JT       0.077200
     37 C4          -2.9080     0.7510    -0.8790 ca         1 7JT      -0.073000
     38 C8          -3.8830    -0.2200    -0.6190 ca         1 7JT       0.047100
     39 C9          -4.7790    -0.0830     0.4030 ca         1 7JT       0.056100
     40 C10         -4.7690     1.0360     1.2430 ca         1 7JT      -0.099000
     41 C11         -3.7920     2.0300     1.0150 ca         1 7JT      -0.098000
     42 C14         -2.8590     1.8920    -0.0440 ca         1 7JT      -0.095300
     43 H27         -5.4900     1.1320     2.0510 ha         1 7JT       0.135000
     44 H30         -3.7580     2.9010     1.6650 ha         1 7JT       0.123000
     45 O1          -4.0690    -1.3670    -1.3210 os         1 7JT      -0.341100
     46 O3          -5.6440    -1.1260     0.4750 os         1 7JT      -0.343100
     47 C15         -5.1290    -2.0430    -0.5550 c5         1 7JT       0.370600
     48 H22         -5.9420    -2.3410    -1.2280 h2         1 7JT       0.065700
     49 H23         -4.7040    -2.9260    -0.0650 h2         1 7JT       0.065700
     50 H21         -2.2030     0.6170    -1.6950 ha         1 7JT       0.144000
@<TRIPOS>BOND
     1     1     2 1   
     2     1     3 1   
     3     1    18 1   
     4     2    19 1   
     5     3     4 2   
     6     3     5 1   
     7     5     6 1   
     8     5    20 1   
     9     5    21 1   
    10     6     7 1   
    11     6     8 1   
    12     6    22 1   
    13     7    13 1   
    14     7    23 1   
    15     7    24 1   
    16     8     9 1   
    17     8    10 2   
    18     9    11 1   
    19    10    12 1   
    20    11    12 2   
    21    12    30 1   
    22    13    14 1   
    23    13    15 1   
    24    13    31 1   
    25    14    17 1   
    26    14    25 1   
    27    14    32 1   
    28    15    16 1   
    29    15    26 1   
    30    15    27 1   
    31    16    17 1   
    32    16    28 1   
    33    16    33 1   
    34    17    29 1   
    35    17    34 1   
    36    30    35 1   
    37    30    36 1   
    38    30    42 1   
    39    37    38 ar  
    40    37    42 ar  
    41    37    50 1   
    42    38    39 ar  
    43    38    45 1   
    44    39    40 ar  
    45    39    46 1   
    46    40    41 ar  
    47    40    43 1   
    48    41    42 ar  
    49    41    44 1   
    50    45    47 1   
    51    46    47 1   
    52    47    48 1   
    53    47    49 1   
@<TRIPOS>SUBSTRUCTURE
     1 7JT         1 TEMP              0 ****  ****    0 ROOT
