@<TRIPOS>MOLECULE
7JT
   50    53     1     0     0
SMALL
bcc


@<TRIPOS>ATOM
      1 N1           5.9330     0.0800    -0.0700 ns         1 7JT      -0.458400
      2 O2           6.9400    -0.7140    -0.5200 oh         1 7JT      -0.379100
      3 C3           4.8790     0.3520    -0.8580 c          1 7JT       0.669100
      4 O4           4.8090     0.0250    -2.0300 o          1 7JT      -0.566100
      5 C5           3.7930     1.1440    -0.1630 c3         1 7JT      -0.160400
      6 C6           2.4220     0.4890    -0.3780 c3         1 7JT      -0.087000
      7 C7           2.3290    -0.8670     0.3420 c3         1 7JT      -0.068400
      8 C12          1.3340     1.4120     0.0390 cc         1 7JT       0.536700
      9 O13          1.3420     1.9110     1.2680 os         1 7JT      -0.142100
     10 N14          0.2990     1.7830    -0.6360 nd         1 7JT      -0.713000
     11 N15          0.1950     2.6540     1.4140 nc         1 7JT      -0.376300
     12 C16         -0.3950     2.5380     0.2650 cd         1 7JT       0.555300
     13 C17          1.0680    -1.6880     0.0770 c5         1 7JT      -0.065700
     14 C18          1.2390    -3.1550     0.5610 c5         1 7JT      -0.079900
     15 C19         -0.2210    -1.1970     0.7630 c5         1 7JT      -0.079900
     16 C20         -1.0390    -2.4660     0.9790 c5         1 7JT      -0.078900
     17 C21          0.0100    -3.4810     1.4220 c5         1 7JT      -0.078900
     18 H1           5.9260     0.2430     0.9270 hn         1 7JT       0.338500
     19 H2           7.6340    -0.1190    -0.8340 ho         1 7JT       0.406000
     20 H3           3.9980     1.2590     0.9040 hc         1 7JT       0.073200
     21 H4           3.8020     2.1480    -0.5970 hc         1 7JT       0.073200
     22 H5           2.2760     0.3250    -1.4480 hc         1 7JT       0.109700
     23 H6           3.1880    -1.4550     0.0050 hc         1 7JT       0.052700
     24 H7           2.4660    -0.7250     1.4190 hc         1 7JT       0.052700
     25 H9           1.2970    -3.8250    -0.2980 hc         1 7JT       0.045450
     26 H10          0.0150    -0.7430     1.7320 hc         1 7JT       0.045450
     27 H11         -0.7640    -0.4570     0.1760 hc         1 7JT       0.045450
     28 H12         -1.8490    -2.3350     1.6980 hc         1 7JT       0.042200
     29 H13         -0.3190    -4.5160     1.3130 hc         1 7JT       0.042200
     30 C2          -1.7640     3.0540    -0.0080 c3         1 7JT      -0.052400
     31 H8           0.8990    -1.6960    -1.0050 hc         1 7JT       0.056700
     32 H14          2.1670    -3.2870     1.1210 hc         1 7JT       0.045450
     33 H15         -1.4920    -2.7800     0.0330 hc         1 7JT       0.042200
     34 H16          0.2390    -3.3270     2.4800 hc         1 7JT       0.042200
     35 H19         -2.0360     3.7910     0.7480 hc         1 7JT       0.077200
     36 H20         -1.7780     3.5500    -0.9800 hc         1 7JT       0.077200
     37 C4          -2.8750     1.0940    -1.1330 ca         1 7JT      -0.091000
     38 C8          -3.6490    -0.0320    -1.0200 ca         1 7JT       0.047100
     39 C9          -4.2580    -0.3920     0.1720 ca         1 7JT       0.056100
     40 C10         -4.1260     0.3690     1.3070 ca         1 7JT      -0.117000
     41 C11         -3.3320     1.5170     1.2070 ca         1 7JT      -0.116000
     42 C14         -2.7140     1.8800     0.0190 ca         1 7JT      -0.095300
     43 H27         -4.6070     0.0970     2.2370 ha         1 7JT       0.153000
     44 H30         -3.1890     2.1290     2.0890 ha         1 7JT       0.141000
     45 O1          -3.9720    -0.9380    -1.9770 os         1 7JT      -0.317900
     46 O3          -4.9720    -1.5300    -0.0170 os         1 7JT      -0.319900
     47 C15         -4.5660    -2.0260    -1.2840 c5         1 7JT       0.324200
     48 H22         -5.4310    -2.3890    -1.8360 h2         1 7JT       0.065700
     49 H23         -3.8290    -2.8270    -1.1490 h2         1 7JT       0.065700
     50 H21         -2.3970     1.3630    -2.0660 ha         1 7JT       0.162000
@<TRIPOS>BOND
     1     1     2 1   
     2     1     3 1   
     3     1    18 1   
     4     2    19 1   
     5     3     4 2   
     6     3     5 1   
     7     5     6 1   
     8     5    20 1   
     9     5    21 1   
    10     6     7 1   
    11     6     8 1   
    12     6    22 1   
    13     7    13 1   
    14     7    23 1   
    15     7    24 1   
    16     8     9 1   
    17     8    10 2   
    18     9    11 1   
    19    10    12 1   
    20    11    12 2   
    21    12    30 1   
    22    13    14 1   
    23    13    15 1   
    24    13    31 1   
    25    14    17 1   
    26    14    25 1   
    27    14    32 1   
    28    15    16 1   
    29    15    26 1   
    30    15    27 1   
    31    16    17 1   
    32    16    28 1   
    33    16    33 1   
    34    17    29 1   
    35    17    34 1   
    36    30    35 1   
    37    30    36 1   
    38    30    42 1   
    39    37    38 ar  
    40    37    42 ar  
    41    37    50 1   
    42    38    39 ar  
    43    38    45 1   
    44    39    40 ar  
    45    39    46 1   
    46    40    41 ar  
    47    40    43 1   
    48    41    42 ar  
    49    41    44 1   
    50    45    47 1   
    51    46    47 1   
    52    47    48 1   
    53    47    49 1   
@<TRIPOS>SUBSTRUCTURE
     1 7JT         1 TEMP              0 ****  ****    0 ROOT
