@<TRIPOS>MOLECULE
7JU
   28    30     1     0     0
SMALL
abcg2


@<TRIPOS>ATOM
      1 F20         -0.6270    -2.4790     0.1200 f          1 7JU      -0.155000
      2 C1           0.1910    -1.4250     0.0310 ca         1 7JU       0.168000
      3 C6           1.5490    -1.6700     0.0270 ca         1 7JU       0.116100
      4 O7           2.0100    -2.9210     0.0920 oh         1 7JU      -0.508100
      5 C5           2.4220    -0.5710    -0.0350 ca         1 7JU       0.101400
      6 N12          3.7650    -0.8520    -0.0380 nc         1 7JU      -0.648100
      7 C11          4.5610     0.1500    -0.0960 cd         1 7JU       0.513800
      8 N10          4.1540     1.4420    -0.1540 ns         1 7JU      -0.431400
      9 C9           2.8340     1.8440    -0.1540 c          1 7JU       0.578600
     10 O13          2.5270     3.0190    -0.2040 o          1 7JU      -0.522000
     11 C4           1.8980     0.7260    -0.0880 ca         1 7JU      -0.173600
     12 C3           0.5210     0.9350    -0.0860 ca         1 7JU      -0.050000
     13 C2          -0.3520    -0.1390    -0.0340 cp         1 7JU      -0.051000
     14 C8          -1.8140     0.0700    -0.0250 cp         1 7JU      -0.060000
     15 C18         -2.3830     0.9590     0.8850 ca         1 7JU      -0.061500
     16 C17         -3.7490     1.1950     0.8970 ca         1 7JU      -0.154500
     17 C16         -4.5410     0.5280    -0.0170 ca         1 7JU       0.181000
     18 F19         -5.8640     0.7460    -0.0130 f          1 7JU      -0.176000
     19 C15         -4.0130    -0.3570    -0.9370 ca         1 7JU      -0.154500
     20 C14         -2.6460    -0.5850    -0.9330 ca         1 7JU      -0.061500
     21 H1           2.9790    -2.8830     0.0870 ho         1 7JU       0.498000
     22 H2           5.6320    -0.0010    -0.1020 h5         1 7JU       0.051800
     23 H3           4.8620     2.1640    -0.1980 hn         1 7JU       0.335500
     24 H4           0.1300     1.9420    -0.1440 ha         1 7JU       0.146000
     25 H5          -1.7540     1.4660     1.6060 ha         1 7JU       0.123500
     26 H6          -4.1890     1.8810     1.6100 ha         1 7JU       0.135000
     27 H7          -4.6550    -0.8590    -1.6490 ha         1 7JU       0.135000
     28 H8          -2.2290    -1.2610    -1.6670 ha         1 7JU       0.123500
@<TRIPOS>BOND
     1     1     2 1   
     2     2     3 ar  
     3     2    13 ar  
     4     3     4 1   
     5     3     5 ar  
     6     4    21 1   
     7     5     6 1   
     8     5    11 ar  
     9     6     7 2   
    10     7     8 1   
    11     7    22 1   
    12     8     9 1   
    13     8    23 1   
    14     9    10 2   
    15     9    11 1   
    16    11    12 ar  
    17    12    13 ar  
    18    12    24 1   
    19    13    14 1   
    20    14    15 ar  
    21    14    20 ar  
    22    15    16 ar  
    23    15    25 1   
    24    16    17 ar  
    25    16    26 1   
    26    17    18 1   
    27    17    19 ar  
    28    19    20 ar  
    29    19    27 1   
    30    20    28 1   
@<TRIPOS>SUBSTRUCTURE
     1 7JU         1 TEMP              0 ****  ****    0 ROOT
