@<TRIPOS>MOLECULE
7JU
   28    30     1     0     0
SMALL
No Charge or Current Charge


@<TRIPOS>ATOM
      1 F20         -0.6460    -2.5810     0.0320 f          1 7JU      -0.155000
      2 C1           0.1770    -1.5050    -0.0210 ca         1 7JU       0.168000
      3 C6           1.5740    -1.7110    -0.0300 ca         1 7JU       0.116100
      4 O7           2.1040    -2.9760    -0.0110 oh         1 7JU      -0.508100
      5 C5           2.4700    -0.6200    -0.0530 ca         1 7JU       0.101400
      6 N12          3.8550    -0.9090    -0.0620 nc         1 7JU      -0.648100
      7 C11          4.6280     0.1840    -0.0830 cd         1 7JU       0.513800
      8 N10          4.1810     1.4750    -0.0960 ns         1 7JU      -0.431400
      9 C9           2.8790     1.8350    -0.0880 c          1 7JU       0.578600
     10 O13          2.5320     3.0060    -0.0990 o          1 7JU      -0.522000
     11 C4           1.9380     0.6850    -0.0640 ca         1 7JU      -0.173600
     12 C3           0.5420     0.8920    -0.0540 ca         1 7JU      -0.050000
     13 C2          -0.3650    -0.1940    -0.0370 cp         1 7JU      -0.051000
     14 C8          -1.8390     0.0620    -0.0280 cp         1 7JU      -0.060000
     15 C18         -2.3960     1.0470     0.8260 ca         1 7JU      -0.061500
     16 C17         -3.7790     1.3000     0.8350 ca         1 7JU      -0.154500
     17 C16         -4.6270     0.5760    -0.0150 ca         1 7JU       0.181000
     18 F19         -5.9550     0.8200    -0.0080 f          1 7JU      -0.176000
     19 C15         -4.1010    -0.3990    -0.8750 ca         1 7JU      -0.154500
     20 C14         -2.7180    -0.6530    -0.8830 ca         1 7JU      -0.061500
     21 H1           3.0810    -2.8380    -0.0210 ho         1 7JU       0.498000
     22 H2           5.7100     0.1180    -0.0930 h5         1 7JU       0.051800
     23 H3           4.8480     2.2320    -0.1120 hn         1 7JU       0.335500
     24 H4           0.1510     1.9070    -0.0720 ha         1 7JU       0.146000
     25 H5          -1.7500     1.6110     1.4960 ha         1 7JU       0.123500
     26 H6          -4.1930     2.0550     1.4980 ha         1 7JU       0.135000
     27 H7          -4.7630    -0.9530    -1.5350 ha         1 7JU       0.135000
     28 H8          -2.3210    -1.4010    -1.5660 ha         1 7JU       0.123500
@<TRIPOS>BOND
     1     1     2 1   
     2     2     3 ar  
     3     2    13 ar  
     4     3     4 1   
     5     3     5 ar  
     6     4    21 1   
     7     5     6 1   
     8     5    11 ar  
     9     6     7 2   
    10     7     8 1   
    11     7    22 1   
    12     8     9 1   
    13     8    23 1   
    14     9    10 2   
    15     9    11 1   
    16    11    12 ar  
    17    12    13 ar  
    18    12    24 1   
    19    13    14 1   
    20    14    15 ar  
    21    14    20 ar  
    22    15    16 ar  
    23    15    25 1   
    24    16    17 ar  
    25    16    26 1   
    26    17    18 1   
    27    17    19 ar  
    28    19    20 ar  
    29    19    27 1   
    30    20    28 1   
@<TRIPOS>SUBSTRUCTURE
     1 7JU         1 TEMP              0 ****  ****    0 ROOT
