@<TRIPOS>MOLECULE
7JV
   35    37     1     0     0
SMALL
No Charge or Current Charge


@<TRIPOS>ATOM
      1 C11         -4.7440    -0.5040     0.4600 cc         1 7JV       0.681100
      2 C15          4.0480     0.6410    -0.2220 ca         1 7JV      -0.087000
      3 C16          4.2280     1.9690    -0.6400 ca         1 7JV      -0.107000
      4 C17          3.1150     2.7590    -0.9600 ca         1 7JV      -0.107000
      5 C18          1.8250     2.2130    -0.8720 ca         1 7JV      -0.096000
      6 C21          3.4630    -2.9070     2.0380 c3         1 7JV       0.146900
      7 C1           1.6190     0.8720    -0.4640 cp         1 7JV      -0.042000
      8 C2           0.2250     0.3400    -0.4180 cp         1 7JV      -0.034000
      9 N3          -4.4160     0.5650     1.1580 nd         1 7JV      -0.708100
     10 C5          -0.1500    -0.7990    -1.1690 ca         1 7JV      -0.147000
     11 C6          -1.4690    -1.2860    -1.1310 ca         1 7JV       0.086100
     12 C7          -0.7650     0.9880     0.3570 ca         1 7JV      -0.044000
     13 C8          -2.0870     0.4970     0.3950 ca         1 7JV      -0.191600
     14 C9          -2.4430    -0.6270    -0.3360 ca         1 7JV       0.277000
     15 N10         -3.7480    -1.1050    -0.2950 na         1 7JV      -0.890200
     16 C12         -3.1480     1.1340     1.1940 c          1 7JV       0.712100
     17 O13         -2.9560     2.1280     1.8770 o          1 7JV      -0.529100
     18 C14          2.7550     0.0810    -0.1160 ca         1 7JV      -0.069300
     19 O20          3.5040    -1.5770     1.4950 os         1 7JV      -0.451000
     20 H1          -5.7440    -0.9220     0.4530 h5         1 7JV       0.046800
     21 H2           4.9220     0.0430     0.0290 ha         1 7JV       0.130000
     22 H3           5.2300     2.3860    -0.7110 ha         1 7JV       0.115000
     23 H4           3.2510     3.7890    -1.2810 ha         1 7JV       0.117000
     24 H5           0.9700     2.8310    -1.1370 ha         1 7JV       0.119000
     25 H6           1.5880    -1.5650     0.6870 h1         1 7JV       0.029700
     26 H7           2.8680    -2.0460    -0.4450 h1         1 7JV       0.029700
     27 H8           4.1590    -2.9960     2.8820 h1         1 7JV       0.029700
     28 H9           2.4550    -3.1510     2.3990 h1         1 7JV       0.029700
     29 H10          3.7500    -3.6470     1.2790 h1         1 7JV       0.029700
     30 H11         -1.0040    -2.7020    -2.3600 ho         1 7JV       0.477000
     31 H12          0.5940    -1.2950    -1.7870 ha         1 7JV       0.121000
     32 H13         -0.4950     1.8700     0.9360 ha         1 7JV       0.151000
     33 H14         -3.9830    -1.9290    -0.8390 hn         1 7JV       0.523000
     34 O4          -1.7990    -2.3980    -1.8710 oh         1 7JV      -0.549100
     35 C19          2.6210    -1.3630     0.3790 c3         1 7JV       0.203900
@<TRIPOS>BOND
     1     1     9 2   
     2     1    15 1   
     3     1    20 1   
     4     2     3 ar  
     5     2    18 ar  
     6     2    21 1   
     7     3     4 ar  
     8     3    22 1   
     9     4     5 ar  
    10     4    23 1   
    11     5     7 ar  
    12     5    24 1   
    13     6    19 1   
    14     6    27 1   
    15     6    28 1   
    16     6    29 1   
    17     7     8 1   
    18     7    18 ar  
    19     8    10 ar  
    20     8    12 ar  
    21     9    16 1   
    22    10    11 ar  
    23    10    31 1   
    24    11    14 ar  
    25    11    34 1   
    26    12    13 ar  
    27    12    32 1   
    28    13    14 ar  
    29    13    16 1   
    30    14    15 1   
    31    15    33 1   
    32    16    17 2   
    33    18    35 1   
    34    19    35 1   
    35    25    35 1   
    36    26    35 1   
    37    30    34 1   
@<TRIPOS>SUBSTRUCTURE
     1 7JV         1 TEMP              0 ****  ****    0 ROOT
