@<TRIPOS>MOLECULE
7JV
   35    37     1     0     0
SMALL
abcg2


@<TRIPOS>ATOM
      1 C11         -4.5870    -0.4740     0.4060 cc         1 7JV       0.681100
      2 C15          3.9770     0.6690    -0.0920 ca         1 7JV      -0.087000
      3 C16          4.1690     1.9560    -0.5740 ca         1 7JV      -0.107000
      4 C17          3.0820     2.7140    -0.9800 ca         1 7JV      -0.107000
      5 C18          1.8090     2.1700    -0.9100 ca         1 7JV      -0.096000
      6 C21          3.5040    -2.9340     1.8470 c3         1 7JV       0.146900
      7 C1           1.6060     0.8740    -0.4400 cp         1 7JV      -0.042000
      8 C2           0.2230     0.3420    -0.3980 cp         1 7JV      -0.034000
      9 N3          -4.3810     0.5950     1.1040 nd         1 7JV      -0.708100
     10 C5          -0.1120    -0.8070    -1.1300 ca         1 7JV      -0.147000
     11 C6          -1.3930    -1.3130    -1.1210 ca         1 7JV       0.086100
     12 C7          -0.7540     0.9880     0.3350 ca         1 7JV      -0.044000
     13 C8          -2.0590     0.4920     0.3580 ca         1 7JV      -0.191600
     14 C9          -2.3760    -0.6550    -0.3640 ca         1 7JV       0.277000
     15 N10         -3.6690    -1.1180    -0.3180 na         1 7JV      -0.890200
     16 C12         -3.1230     1.1550     1.1330 c          1 7JV       0.712100
     17 O13         -2.9090     2.1670     1.7820 o          1 7JV      -0.529100
     18 C14          2.7030     0.1130    -0.0120 ca         1 7JV      -0.069300
     19 O20          3.5910    -1.6160     1.3660 os         1 7JV      -0.451000
     20 H1          -5.5780    -0.9130     0.3850 h5         1 7JV       0.046800
     21 H2           4.8350     0.0970     0.2340 ha         1 7JV       0.130000
     22 H3           5.1700     2.3650    -0.6280 ha         1 7JV       0.115000
     23 H4           3.2220     3.7210    -1.3530 ha         1 7JV       0.117000
     24 H5           0.9550     2.7520    -1.2360 ha         1 7JV       0.119000
     25 H6           1.5640    -1.3280     1.0960 h1         1 7JV       0.029700
     26 H7           2.4230    -2.0000    -0.2840 h1         1 7JV       0.029700
     27 H8           4.3790    -3.1210     2.4680 h1         1 7JV       0.029700
     28 H9           2.6060    -3.0910     2.4560 h1         1 7JV       0.029700
     29 H10          3.4920    -3.6680     1.0330 h1         1 7JV       0.029700
     30 H11         -1.0500    -2.7930    -2.2850 ho         1 7JV       0.477000
     31 H12          0.6420    -1.3000    -1.7350 ha         1 7JV       0.121000
     32 H13         -0.5120     1.8750     0.9050 ha         1 7JV       0.151000
     33 H14         -3.9360    -1.9480    -0.8260 hn         1 7JV       0.523000
     34 O4          -1.7870    -2.4020    -1.8010 oh         1 7JV      -0.549100
     35 C19          2.5120    -1.2760     0.5410 c3         1 7JV       0.203900
@<TRIPOS>BOND
     1     1     9 2   
     2     1    15 1   
     3     1    20 1   
     4     2     3 ar  
     5     2    18 ar  
     6     2    21 1   
     7     3     4 ar  
     8     3    22 1   
     9     4     5 ar  
    10     4    23 1   
    11     5     7 ar  
    12     5    24 1   
    13     6    19 1   
    14     6    27 1   
    15     6    28 1   
    16     6    29 1   
    17     7     8 1   
    18     7    18 ar  
    19     8    10 ar  
    20     8    12 ar  
    21     9    16 1   
    22    10    11 ar  
    23    10    31 1   
    24    11    14 ar  
    25    11    34 1   
    26    12    13 ar  
    27    12    32 1   
    28    13    14 ar  
    29    13    16 1   
    30    14    15 1   
    31    15    33 1   
    32    16    17 2   
    33    18    35 1   
    34    19    35 1   
    35    25    35 1   
    36    26    35 1   
    37    30    34 1   
@<TRIPOS>SUBSTRUCTURE
     1 7JV         1 TEMP              0 ****  ****    0 ROOT
