@<TRIPOS>MOLECULE
7JW
   27    29     1     0     0
SMALL
No Charge or Current Charge


@<TRIPOS>ATOM
      1 C4           1.9230     1.4880     0.2260 ca         1 7JW       0.185100
      2 C5           2.7470     0.3450     0.0300 ca         1 7JW       0.195000
      3 C6           2.1060    -0.9230    -0.1880 ca         1 7JW       0.259000
      4 C8           4.1760    -1.9420    -0.3650 ca         1 7JW       0.310900
      5 C13         -2.2660    -1.1130     0.5060 ca         1 7JW      -0.069000
      6 C15         -4.4370    -0.1800    -0.0630 ca         1 7JW       0.179000
      7 C17         -2.4110     1.0600    -0.5770 ca         1 7JW      -0.069000
      8 C1           0.5230     1.3780     0.2060 ca         1 7JW      -0.220000
      9 C2          -0.1150     0.1370    -0.0070 cp         1 7JW       0.028000
     10 C3           0.7030    -0.9990    -0.2000 ca         1 7JW      -0.112000
     11 N7           2.8220    -2.0630    -0.3860 nb         1 7JW      -0.634000
     12 C9           4.8140    -0.6990    -0.1510 ca         1 7JW       0.279900
     13 N10          4.1120     0.4480     0.0470 nb         1 7JW      -0.591000
     14 C11         -1.6080     0.0270    -0.0260 cp         1 7JW      -0.060000
     15 O12          2.4740     2.7260     0.4420 oh         1 7JW      -0.496100
     16 C14         -3.6680    -1.2150     0.4880 ca         1 7JW      -0.153500
     17 C16         -3.8130     0.9560    -0.5960 ca         1 7JW      -0.153500
     18 H1           4.7560    -2.8490    -0.5220 h4         1 7JW       0.030100
     19 H2          -1.6860    -1.9180     0.9500 ha         1 7JW       0.120500
     20 H3          -1.9420     1.9420    -1.0070 ha         1 7JW       0.120500
     21 H4          -0.0830     2.2650     0.3720 ha         1 7JW       0.120000
     22 H5           0.2410    -1.9650    -0.3800 ha         1 7JW       0.139000
     23 H6           5.9000    -0.6220    -0.1380 h4         1 7JW       0.032100
     24 H7           1.7480     3.3740     0.5540 ho         1 7JW       0.465000
     25 H8          -4.1590    -2.0920     0.9020 ha         1 7JW       0.134500
     26 H9          -4.4150     1.7530    -1.0250 ha         1 7JW       0.134500
     27 F18         -5.7840    -0.2790    -0.0810 f          1 7JW      -0.176000
@<TRIPOS>BOND
     1     1     2 ar  
     2     1     8 ar  
     3     1    15 1   
     4     2     3 ar  
     5     2    13 ar  
     6     3    10 ar  
     7     3    11 ar  
     8     4    11 ar  
     9     4    12 ar  
    10     4    18 1   
    11     5    14 ar  
    12     5    16 ar  
    13     5    19 1   
    14     6    16 ar  
    15     6    17 ar  
    16     6    27 1   
    17     7    14 ar  
    18     7    17 ar  
    19     7    20 1   
    20     8     9 ar  
    21     8    21 1   
    22     9    10 ar  
    23     9    14 1   
    24    10    22 1   
    25    12    13 ar  
    26    12    23 1   
    27    15    24 1   
    28    16    25 1   
    29    17    26 1   
@<TRIPOS>SUBSTRUCTURE
     1 7JW         1 TEMP              0 ****  ****    0 ROOT
