@<TRIPOS>MOLECULE
7JW
   27    29     1     0     0
SMALL
abcg2


@<TRIPOS>ATOM
      1 C4           1.8710     1.4820     0.2200 ca         1 7JW       0.185100
      2 C5           2.6840     0.3300     0.0260 ca         1 7JW       0.195000
      3 C6           2.0570    -0.9210    -0.1810 ca         1 7JW       0.259000
      4 C8           4.1020    -1.8900    -0.3570 ca         1 7JW       0.310900
      5 C13         -2.2430    -1.1080     0.5000 ca         1 7JW      -0.069000
      6 C15         -4.3560    -0.1730    -0.0680 ca         1 7JW       0.179000
      7 C17         -2.3670     1.0380    -0.5570 ca         1 7JW      -0.069000
      8 C1           0.5050     1.3530     0.2040 ca         1 7JW      -0.220000
      9 C2          -0.1170     0.0990    -0.0050 cp         1 7JW       0.028000
     10 C3           0.6540    -1.0230    -0.1970 ca         1 7JW      -0.112000
     11 N7           2.8080    -2.0330    -0.3750 nb         1 7JW      -0.634000
     12 C9           4.7210    -0.6350    -0.1450 ca         1 7JW       0.279900
     13 N10          4.0260     0.4510     0.0420 nb         1 7JW      -0.591000
     14 C11         -1.5900     0.0110    -0.0190 cp         1 7JW      -0.060000
     15 O12          2.5100     2.6400     0.4190 oh         1 7JW      -0.496100
     16 C14         -3.6240    -1.2090     0.4800 ca         1 7JW      -0.153500
     17 C16         -3.7500     0.9540    -0.5880 ca         1 7JW      -0.153500
     18 H1           4.7120    -2.7730    -0.5120 h4         1 7JW       0.030100
     19 H2          -1.6700    -1.9110     0.9450 ha         1 7JW       0.120500
     20 H3          -1.8920     1.9130    -0.9830 ha         1 7JW       0.120500
     21 H4          -0.1110     2.2280     0.3780 ha         1 7JW       0.120000
     22 H5           0.2110    -1.9920    -0.3860 ha         1 7JW       0.139000
     23 H6           5.8020    -0.5580    -0.1370 h4         1 7JW       0.032100
     24 H7           1.8750     3.3580     0.5290 ho         1 7JW       0.465000
     25 H8          -4.1220    -2.0770     0.8910 ha         1 7JW       0.134500
     26 H9          -4.3430     1.7510    -1.0180 ha         1 7JW       0.134500
     27 F18         -5.6940    -0.2640    -0.0950 f          1 7JW      -0.176000
@<TRIPOS>BOND
     1     1     2 ar  
     2     1     8 ar  
     3     1    15 1   
     4     2     3 ar  
     5     2    13 ar  
     6     3    10 ar  
     7     3    11 ar  
     8     4    11 ar  
     9     4    12 ar  
    10     4    18 1   
    11     5    14 ar  
    12     5    16 ar  
    13     5    19 1   
    14     6    16 ar  
    15     6    17 ar  
    16     6    27 1   
    17     7    14 ar  
    18     7    17 ar  
    19     7    20 1   
    20     8     9 ar  
    21     8    21 1   
    22     9    10 ar  
    23     9    14 1   
    24    10    22 1   
    25    12    13 ar  
    26    12    23 1   
    27    15    24 1   
    28    16    25 1   
    29    17    26 1   
@<TRIPOS>SUBSTRUCTURE
     1 7JW         1 TEMP              0 ****  ****    0 ROOT
