@<TRIPOS>MOLECULE
7JX
   18    19     1     0     0
SMALL
abcg2


@<TRIPOS>ATOM
      1 C4           0.3330     1.9000     0.1060 ca         1 7JX       0.183100
      2 C5          -0.8320     1.0840     0.0730 ca         1 7JX       0.191000
      3 C6          -0.7030    -0.3170     0.0080 ca         1 7JX      -0.036000
      4 C7          -1.8970    -1.0700    -0.0200 ca         1 7JX      -0.056000
      5 C8          -3.0880    -0.4050     0.0150 ca         1 7JX       0.062000
      6 C1           1.5750     1.3150     0.0720 ca         1 7JX      -0.149000
      7 C2           1.6700    -0.0870     0.0060 ca         1 7JX       0.034100
      8 C3           0.5780    -0.9100    -0.0250 ca         1 7JX      -0.112000
      9 C9          -3.1140     1.0070     0.0810 ca         1 7JX       0.370900
     10 N10         -2.0220     1.7150     0.1090 nb         1 7JX      -0.678000
     11 BR1          3.3960    -0.8470    -0.0380 br         1 7JX      -0.084100
     12 O12          0.2040     3.2240     0.1700 oh         1 7JX      -0.517100
     13 CL3         -4.5850    -1.2560    -0.0180 cl         1 7JX      -0.174000
     14 H1          -1.8560    -2.1500    -0.0690 ha         1 7JX       0.140000
     15 H2           2.4620     1.9350     0.0970 ha         1 7JX       0.150000
     16 H3           0.6690    -1.9860    -0.0750 ha         1 7JX       0.138000
     17 H4          -4.0620     1.5320     0.1100 h4         1 7JX       0.038100
     18 H5          -0.7430     3.4370     0.1910 ho         1 7JX       0.499000
@<TRIPOS>BOND
     1     1     2 ar  
     2     1     6 ar  
     3     1    12 1   
     4     2     3 ar  
     5     2    10 ar  
     6     3     4 ar  
     7     3     8 ar  
     8     4     5 ar  
     9     4    14 1   
    10     5     9 ar  
    11     5    13 1   
    12     6     7 ar  
    13     6    15 1   
    14     7     8 ar  
    15     7    11 1   
    16     8    16 1   
    17     9    10 ar  
    18     9    17 1   
    19    12    18 1   
@<TRIPOS>SUBSTRUCTURE
     1 7JX         1 TEMP              0 ****  ****    0 ROOT
