@<TRIPOS>MOLECULE
7JX
   18    19     1     0     0
SMALL
No Charge or Current Charge


@<TRIPOS>ATOM
      1 C4           0.3480     1.9140     0.1080 ca         1 7JX       0.183100
      2 C5          -0.8390     1.1400     0.0770 ca         1 7JX       0.191000
      3 C6          -0.7190    -0.2740     0.0100 ca         1 7JX      -0.036000
      4 C7          -1.8830    -1.0640    -0.0210 ca         1 7JX      -0.056000
      5 C8          -3.1300    -0.4230     0.0150 ca         1 7JX       0.062000
      6 C1           1.6110     1.3050     0.0730 ca         1 7JX      -0.149000
      7 C2           1.7110    -0.0930     0.0070 ca         1 7JX       0.034100
      8 C3           0.5510    -0.8830    -0.0250 ca         1 7JX      -0.112000
      9 C9          -3.1700     0.9830     0.0810 ca         1 7JX       0.370900
     10 N10         -2.0530     1.7560     0.1120 nb         1 7JX      -0.678000
     11 Br1          3.4330    -0.9240    -0.0410 br         1 7JX      -0.084100
     12 O12          0.2550     3.2760     0.1720 oh         1 7JX      -0.517100
     13 Cl3         -4.6170    -1.3700    -0.0220 cl         1 7JX      -0.174000
     14 H1          -1.8250    -2.1490    -0.0720 ha         1 7JX       0.140000
     15 H2           2.5090     1.9160     0.0970 ha         1 7JX       0.150000
     16 H3           0.6400    -1.9660    -0.0760 ha         1 7JX       0.138000
     17 H4          -4.1240     1.5080     0.1110 h4         1 7JX       0.038100
     18 H5          -0.7110     3.4670     0.1860 ho         1 7JX       0.499000
@<TRIPOS>BOND
     1     1     2 ar  
     2     1     6 ar  
     3     1    12 1   
     4     2     3 ar  
     5     2    10 ar  
     6     3     4 ar  
     7     3     8 ar  
     8     4     5 ar  
     9     4    14 1   
    10     5     9 ar  
    11     5    13 1   
    12     6     7 ar  
    13     6    15 1   
    14     7     8 ar  
    15     7    11 1   
    16     8    16 1   
    17     9    10 ar  
    18     9    17 1   
    19    12    18 1   
@<TRIPOS>SUBSTRUCTURE
     1 7JX         1 TEMP              0 ****  ****    0 ROOT
