@<TRIPOS>MOLECULE
7JZ
   23    23     1     0     0
SMALL
bcc


@<TRIPOS>ATOM
      1 F2A         19.9090    68.8140    84.1470 f          1 7JZ      -0.231800
      2 C2          19.7920    69.0850    85.4720 c6         1 7JZ       0.326600
      3 F2B         18.7960    70.0210    85.5630 f          1 7JZ      -0.231800
      4 C1          21.1010    69.7360    85.9940 c6         1 7JZ       0.326900
      5 C3          19.3610    67.8350    86.2490 c6         1 7JZ       0.117100
      6 O3          18.4720    67.0430    85.5220 oh         1 7JZ      -0.565800
      7 C4          20.5870    67.0690    86.7260 c6         1 7JZ       0.085100
      8 O4          21.2530    66.5780    85.5860 oh         1 7JZ      -0.583800
      9 C5          21.4230    67.9820    87.6310 c6         1 7JZ       0.129100
     10 O5          21.3190    69.3700    87.3070 os         1 7JZ      -0.375600
     11 C6          22.8640    67.5240    87.7500 c3         1 7JZ       0.125400
     12 O6          23.4790    68.2610    88.7800 oh         1 7JZ      -0.584800
     13 O1          22.2060    69.4090    85.2200 oh         1 7JZ      -0.599800
     14 H1          20.9410    70.8220    86.0120 h2         1 7JZ       0.083700
     15 H3          18.8270    68.1840    87.1380 h1         1 7JZ       0.103700
     16 HO3         18.9740    66.5580    84.8550 ho         1 7JZ       0.426000
     17 H4          20.2410    66.2350    87.3480 h1         1 7JZ       0.054700
     18 HO4         21.6700    65.7390    85.8030 ho         1 7JZ       0.412000
     19 H5          20.9720    67.9120    88.6270 h1         1 7JZ       0.082700
     20 H61         22.8530    66.4480    87.9790 h1         1 7JZ       0.030700
     21 H62         23.3850    67.6440    86.7960 h1         1 7JZ       0.030700
     22 HO6         24.4150    68.0420    88.7860 ho         1 7JZ       0.406000
     23 HO1         22.2020    69.9340    84.4120 ho         1 7JZ       0.434000
@<TRIPOS>BOND
     1     1     2 1   
     2     2     3 1   
     3     2     4 1   
     4     2     5 1   
     5     4    10 1   
     6     4    13 1   
     7     4    14 1   
     8     5     6 1   
     9     5     7 1   
    10     5    15 1   
    11     6    16 1   
    12     7     8 1   
    13     7     9 1   
    14     7    17 1   
    15     8    18 1   
    16     9    10 1   
    17     9    11 1   
    18     9    19 1   
    19    11    12 1   
    20    11    20 1   
    21    11    21 1   
    22    12    22 1   
    23    13    23 1   
@<TRIPOS>SUBSTRUCTURE
     1 7JZ         1 TEMP              0 ****  ****    0 ROOT
