@<TRIPOS>MOLECULE
7JZ
   23    23     1     0     0
SMALL
No Charge or Current Charge


@<TRIPOS>ATOM
      1 F2A         19.7070    69.1620    84.1180 f          1 7JZ      -0.110500
      2 C2          19.7000    69.2560    85.5280 c6         1 7JZ       0.084000
      3 F2B         18.6810    70.1780    85.8390 f          1 7JZ      -0.110500
      4 C1          21.0710    69.8360    86.0300 c6         1 7JZ       0.373300
      5 C3          19.3300    67.8750    86.1840 c6         1 7JZ       0.140300
      6 O3          18.5220    67.0640    85.3080 oh         1 7JZ      -0.628000
      7 C4          20.6160    67.1010    86.6070 c6         1 7JZ       0.108300
      8 O4          21.4080    66.8010    85.4300 oh         1 7JZ      -0.706000
      9 C5          21.4080    67.9780    87.6470 c6         1 7JZ       0.152300
     10 O5          21.2890    69.4170    87.3930 os         1 7JZ      -0.422000
     11 C6          22.9150    67.5750    87.8140 c3         1 7JZ       0.148600
     12 O6          23.5870    68.3180    88.8500 oh         1 7JZ      -0.707000
     13 O1          22.1710    69.3790    85.2440 oh         1 7JZ      -0.662000
     14 H1          21.0300    70.9360    85.9880 h2         1 7JZ       0.083700
     15 H3          18.7650    68.0880    87.1050 h1         1 7JZ       0.103700
     16 HO3         19.1070    66.8250    84.5550 ho         1 7JZ       0.465000
     17 H4          20.3170    66.1680    87.1080 h1         1 7JZ       0.054700
     18 HO4         21.5270    65.8200    85.3960 ho         1 7JZ       0.511000
     19 H5          20.9430    67.8010    88.6270 h1         1 7JZ       0.082700
     20 H61         22.9530    66.5020    88.0430 h1         1 7JZ       0.030700
     21 H62         23.4350    67.7170    86.8570 h1         1 7JZ       0.030700
     22 HO6         24.5360    68.0500    88.8290 ho         1 7JZ       0.505000
     23 HO1         22.0230    68.3980    85.2020 ho         1 7JZ       0.473000
@<TRIPOS>BOND
     1     1     2 1   
     2     2     3 1   
     3     2     4 1   
     4     2     5 1   
     5     4    10 1   
     6     4    13 1   
     7     4    14 1   
     8     5     6 1   
     9     5     7 1   
    10     5    15 1   
    11     6    16 1   
    12     7     8 1   
    13     7     9 1   
    14     7    17 1   
    15     8    18 1   
    16     9    10 1   
    17     9    11 1   
    18     9    19 1   
    19    11    12 1   
    20    11    20 1   
    21    11    21 1   
    22    12    22 1   
    23    13    23 1   
@<TRIPOS>SUBSTRUCTURE
     1 7JZ         1 TEMP              0 ****  ****    0 ROOT
