@<TRIPOS>MOLECULE
7K0
   57    57     1     0     0
SMALL
No Charge or Current Charge


@<TRIPOS>ATOM
      1 C1           4.2950    -2.0700     0.3520 ca         1 7K0      -0.080300
      2 C2           3.6460    -1.2630    -0.7650 c3         1 7K0       0.229900
      3 C8           3.7980    -3.3450     0.6880 ca         1 7K0      -0.085000
      4 C9           4.3980    -4.0900     1.7190 ca         1 7K0      -0.121500
      5 C10          5.4970    -3.5650     2.4190 ca         1 7K0      -0.117000
      6 C11          5.9950    -2.2930     2.0890 ca         1 7K0      -0.121500
      7 C12          5.3960    -1.5470     1.0590 ca         1 7K0      -0.085000
      8 C20         -3.4810    -1.3870    -0.0440 c3         1 7K0      -0.020300
      9 C21         -2.3300    -2.4160    -0.2150 c3         1 7K0      -0.067400
     10 C22         -1.1020    -1.9290    -1.0320 c3         1 7K0      -0.074700
     11 C24          0.0200    -2.9920    -1.0260 c3         1 7K0      -0.079100
     12 N26         -3.5000     4.0970     2.6570 n8         1 7K0      -1.008200
     13 C6           0.0090     2.0380    -0.8600 c3         1 7K0      -0.245000
     14 P13         -0.3690     3.5070     0.2120 p5         1 7K0       1.349300
     15 O14         -0.0590     4.8090    -0.4370 o          1 7K0      -0.834000
     16 O15          0.2050     3.3720     1.5780 o          1 7K0      -0.834000
     17 N16         -1.9930     3.4320     0.3790 n7         1 7K0      -0.957500
     18 C17         -2.7170     2.3050     1.0460 c3         1 7K0       0.152500
     19 C18         -3.2330     1.1470     0.1150 c          1 7K0       0.602100
     20 N19         -3.0140    -0.1310     0.5990 ns         1 7K0      -0.471900
     21 C23         -1.4630    -1.5200    -2.4790 c3         1 7K0      -0.079100
     22 O27         -3.7940     1.3430    -0.9600 o          1 7K0      -0.656100
     23 C28         -4.6700    -2.0030     0.7630 c          1 7K0       0.723000
     24 O29         -5.7050    -2.2620     0.1640 o          1 7K0      -0.740500
     25 O30         -4.5540    -2.1250     1.9760 o          1 7K0      -0.740500
     26 O3           2.6370    -0.4190    -0.1890 os         1 7K0      -0.467100
     27 C4           1.8950     0.3430    -1.0370 c          1 7K0       0.620100
     28 N5           1.0010     1.0780    -0.3040 ns         1 7K0      -0.427900
     29 O7           2.0040     0.3700    -2.2540 o          1 7K0      -0.582000
     30 C25         -3.9100     2.9240     1.8270 c3         1 7K0       0.141800
     31 H1           4.4090    -0.6620    -1.2770 h1         1 7K0       0.045200
     32 H2           3.2080    -1.9490    -1.5020 h1         1 7K0       0.045200
     33 H3           2.9470    -3.7580     0.1520 ha         1 7K0       0.119500
     34 H4           4.0100    -5.0740     1.9740 ha         1 7K0       0.103500
     35 H5           5.9610    -4.1420     3.2160 ha         1 7K0       0.097000
     36 H6           6.8450    -1.8850     2.6320 ha         1 7K0       0.103500
     37 H7           5.7860    -0.5620     0.8110 ha         1 7K0       0.119500
     38 H8          -3.8710    -1.1490    -1.0410 h1         1 7K0       0.043700
     39 H9          -1.9890    -2.7220     0.7820 hc         1 7K0       0.039700
     40 H10         -2.7380    -3.3170    -0.6890 hc         1 7K0       0.039700
     41 H11         -0.7000    -1.0420    -0.5310 hc         1 7K0       0.074700
     42 H12         -0.3210    -3.9240    -1.4930 hc         1 7K0       0.018700
     43 H13          0.8970    -2.6340    -1.5790 hc         1 7K0       0.018700
     44 H14          0.3370    -3.2160    -0.0000 hc         1 7K0       0.018700
     45 H15         -4.3230     4.4590     3.1540 hn         1 7K0       0.375000
     46 H16         -2.8820     3.7760     3.4120 hn         1 7K0       0.375000
     47 H18         -0.9190     1.5060    -1.0870 h1         1 7K0       0.061200
     48 H19          0.3980     2.4540    -1.7960 h1         1 7K0       0.061200
     49 H21         -2.0670     4.1930     1.0550 hn         1 7K0       0.450000
     50 H22         -2.0560     1.8480     1.7950 h1         1 7K0       0.041700
     51 H23         -2.5750    -0.2040     1.5100 hn         1 7K0       0.345500
     52 H24         -0.5650    -1.2140    -3.0290 hc         1 7K0       0.018700
     53 H25         -1.9260    -2.3550    -3.0180 hc         1 7K0       0.018700
     54 H26         -2.1580    -0.6730    -2.4890 hc         1 7K0       0.018700
     55 H28          1.0730     0.9690     0.7030 hn         1 7K0       0.336500
     56 H29         -4.3620     2.1610     2.4760 h1         1 7K0       0.043200
     57 H30         -4.6740     3.2590     1.1110 h1         1 7K0       0.043200
@<TRIPOS>BOND
     1     1     2 1   
     2     1     3 ar  
     3     1     7 ar  
     4     2    26 1   
     5     2    31 1   
     6     2    32 1   
     7     3     4 ar  
     8     3    33 1   
     9     4     5 ar  
    10     4    34 1   
    11     5     6 ar  
    12     5    35 1   
    13     6     7 ar  
    14     6    36 1   
    15     7    37 1   
    16     8     9 1   
    17     8    20 1   
    18     8    23 1   
    19     8    38 1   
    20     9    10 1   
    21     9    39 1   
    22     9    40 1   
    23    10    11 1   
    24    10    21 1   
    25    10    41 1   
    26    11    42 1   
    27    11    43 1   
    28    11    44 1   
    29    12    30 1   
    30    12    45 1   
    31    12    46 1   
    32    13    14 1   
    33    13    28 1   
    34    13    47 1   
    35    13    48 1   
    36    14    15 1   
    37    14    16 1   
    38    14    17 1   
    39    17    18 1   
    40    17    49 1   
    41    18    19 1   
    42    18    30 1   
    43    18    50 1   
    44    19    20 1   
    45    19    22 2   
    46    20    51 1   
    47    21    52 1   
    48    21    53 1   
    49    21    54 1   
    50    23    24 1   
    51    23    25 1   
    52    26    27 1   
    53    27    28 1   
    54    27    29 2   
    55    28    55 1   
    56    30    56 1   
    57    30    57 1   
@<TRIPOS>SUBSTRUCTURE
     1 7K0         1 TEMP              0 ****  ****    0 ROOT
