@<TRIPOS>MOLECULE
7K0
   57    57     1     0     0
SMALL
bcc


@<TRIPOS>ATOM
      1 C1           4.5270    -1.9290    -0.4970 ca         1 7K0      -0.080300
      2 C2           4.0040    -0.7060    -1.1870 c3         1 7K0       0.206700
      3 C8           3.8070    -3.1210    -0.5550 ca         1 7K0      -0.103000
      4 C9           4.2600    -4.2520     0.1070 ca         1 7K0      -0.139500
      5 C10          5.4440    -4.2040     0.8350 ca         1 7K0      -0.135000
      6 C11          6.1690    -3.0220     0.8940 ca         1 7K0      -0.139500
      7 C12          5.7100    -1.8900     0.2330 ca         1 7K0      -0.103000
      8 C20         -3.1930    -1.1930    -0.0720 c3         1 7K0      -0.020300
      9 C21         -2.2300    -2.2080     0.5430 c3         1 7K0      -0.067400
     10 C22         -0.7410    -1.9260     0.3240 c3         1 7K0      -0.074700
     11 C24          0.1010    -2.9400     1.0920 c3         1 7K0      -0.079100
     12 N26         -4.3740     4.6100     1.5970 n8         1 7K0      -0.897800
     13 C6           0.0400     1.8740    -0.3510 c3         1 7K0      -0.087200
     14 P13         -0.6930     2.6040     1.1750 p5         1 7K0       1.191500
     15 O14          0.1050     3.8200     1.5700 o          1 7K0      -0.834000
     16 O15         -0.8590     1.4560     2.1570 o          1 7K0      -0.834000
     17 N16         -2.2200     3.1230     0.6090 n7         1 7K0      -0.902300
     18 C17         -3.4410     2.4310     1.0020 c3         1 7K0       0.152500
     19 C18         -3.6630     1.1840     0.1410 c          1 7K0       0.669100
     20 N19         -3.0030     0.0970     0.5460 ns         1 7K0      -0.538900
     21 C23         -0.3750    -1.9370    -1.1560 c3         1 7K0      -0.079100
     22 O27         -4.3910     1.1920    -0.8470 o          1 7K0      -0.656100
     23 C28         -4.6440    -1.7170     0.0930 c          1 7K0       0.933600
     24 O29         -4.9960    -2.5670    -0.7510 o          1 7K0      -0.845800
     25 O30         -5.3050    -1.2970     1.0560 o          1 7K0      -0.845800
     26 O3           2.9780    -0.1660    -0.3500 os         1 7K0      -0.443900
     27 C4           2.1170     0.7040    -0.9000 c          1 7K0       0.736100
     28 N5           1.2140     1.1110     0.0050 ns         1 7K0      -0.494900
     29 O7           2.1710     1.0710    -2.0570 o          1 7K0      -0.631000
     30 C25         -4.6250     3.3840     0.8580 c3         1 7K0       0.141800
     31 H1           4.7970     0.0340    -1.3290 h1         1 7K0       0.045200
     32 H2           3.6010    -0.9610    -2.1690 h1         1 7K0       0.045200
     33 H3           2.8890    -3.1670    -1.1290 ha         1 7K0       0.137500
     34 H4           3.6940    -5.1730     0.0500 ha         1 7K0       0.121500
     35 H5           5.7990    -5.0860     1.3510 ha         1 7K0       0.115000
     36 H6           7.0920    -2.9790     1.4580 ha         1 7K0       0.121500
     37 H7           6.2770    -0.9690     0.2840 ha         1 7K0       0.137500
     38 H8          -2.9890    -1.1160    -1.1440 h1         1 7K0       0.043700
     39 H9          -2.4300    -2.2760     1.6190 hc         1 7K0       0.039700
     40 H10         -2.4660    -3.1900     0.1230 hc         1 7K0       0.039700
     41 H11         -0.5150    -0.9360     0.7290 hc         1 7K0       0.074700
     42 H12         -0.0870    -3.9570     0.7400 hc         1 7K0       0.018700
     43 H13          1.1670    -2.7400     0.9700 hc         1 7K0       0.018700
     44 H14         -0.1210    -2.9130     2.1600 hc         1 7K0       0.018700
     45 H15         -5.0780     5.2980     1.3650 hn         1 7K0       0.319800
     46 H16         -4.4610     4.4420     2.5910 hn         1 7K0       0.319800
     47 H18         -0.7040     1.2420    -0.8480 h1         1 7K0       0.061200
     48 H19          0.3060     2.6710    -1.0460 h1         1 7K0       0.061200
     49 H21         -2.3480     4.1170     0.7750 hn         1 7K0       0.394800
     50 H22         -3.3970     2.1060     2.0510 h1         1 7K0       0.041700
     51 H23         -2.3570     0.2050     1.3200 hn         1 7K0       0.345500
     52 H24          0.6980    -1.7990    -1.2950 hc         1 7K0       0.018700
     53 H25         -0.6450    -2.8910    -1.6160 hc         1 7K0       0.018700
     54 H26         -0.8790    -1.1450    -1.7120 hc         1 7K0       0.018700
     55 H28          1.2010     0.6480     0.9020 hn         1 7K0       0.336500
     56 H29         -5.5360     2.8590     1.1700 h1         1 7K0       0.043200
     57 H30         -4.7530     3.6420    -0.1950 h1         1 7K0       0.043200
@<TRIPOS>BOND
     1     1     2 1   
     2     1     3 ar  
     3     1     7 ar  
     4     2    26 1   
     5     2    31 1   
     6     2    32 1   
     7     3     4 ar  
     8     3    33 1   
     9     4     5 ar  
    10     4    34 1   
    11     5     6 ar  
    12     5    35 1   
    13     6     7 ar  
    14     6    36 1   
    15     7    37 1   
    16     8     9 1   
    17     8    20 1   
    18     8    23 1   
    19     8    38 1   
    20     9    10 1   
    21     9    39 1   
    22     9    40 1   
    23    10    11 1   
    24    10    21 1   
    25    10    41 1   
    26    11    42 1   
    27    11    43 1   
    28    11    44 1   
    29    12    30 1   
    30    12    45 1   
    31    12    46 1   
    32    13    14 1   
    33    13    28 1   
    34    13    47 1   
    35    13    48 1   
    36    14    15 1   
    37    14    16 1   
    38    14    17 1   
    39    17    18 1   
    40    17    49 1   
    41    18    19 1   
    42    18    30 1   
    43    18    50 1   
    44    19    20 1   
    45    19    22 2   
    46    20    51 1   
    47    21    52 1   
    48    21    53 1   
    49    21    54 1   
    50    23    24 1   
    51    23    25 1   
    52    26    27 1   
    53    27    28 1   
    54    27    29 2   
    55    28    55 1   
    56    30    56 1   
    57    30    57 1   
@<TRIPOS>SUBSTRUCTURE
     1 7K0         1 TEMP              0 ****  ****    0 ROOT
