@<TRIPOS>MOLECULE
7K1
   72    78     1     0     0
SMALL
No Charge or Current Charge


@<TRIPOS>ATOM
      1 C1          -2.4250     0.8400    -1.0160 cc         1 7K1      -0.103400
      2 C2          -4.3650     1.8470    -4.0880 ca         1 7K1      -0.201000
      3 C3          -5.5410     2.1590    -3.3730 ca         1 7K1       0.358900
      4 C11         -3.0890     0.9220     0.2100 cd         1 7K1       0.000700
      5 C12          1.2960     1.7590    -1.1400 c          1 7K1       0.601100
      6 C14         -2.6050     0.5200     1.5490 ca         1 7K1      -0.048800
      7 C15         -1.8320    -0.6530     1.8260 cp         1 7K1       0.004000
      8 C16         -1.3480    -0.8500     3.1430 ca         1 7K1      -0.109000
      9 C17         -1.6330     0.0530     4.1790 ca         1 7K1      -0.071300
     10 C18         -2.4390     1.1670     3.9100 ca         1 7K1      -0.119000
     11 C19         -2.9290     1.3880     2.6140 ca         1 7K1      -0.102000
     12 C20         -1.6080    -1.7420     0.8200 cp         1 7K1      -0.060000
     13 C21         -0.3350    -2.3510     0.6780 ca         1 7K1      -0.090500
     14 C22         -0.1200    -3.3640    -0.2720 ca         1 7K1      -0.108500
     15 C23         -1.1740    -3.7960    -1.0920 ca         1 7K1      -0.106000
     16 C24         -2.4470    -3.2170    -0.9580 ca         1 7K1      -0.108500
     17 C25         -2.6610    -2.2030    -0.0090 ca         1 7K1      -0.090500
     18 C26         -1.0890    -0.1870     5.5790 c3         1 7K1      -0.048800
     19 C28          0.8010     2.2670     1.3000 c6         1 7K1       0.056000
     20 C29          1.2340     2.0050     2.7600 c6         1 7K1       0.140600
     21 C30          3.3790     1.2080     2.1310 c6         1 7K1       0.143600
     22 N4          -5.6440     2.0380    -2.0250 nb         1 7K1      -0.686000
     23 C5          -3.3790     1.2720    -1.9970 ca         1 7K1      -0.137800
     24 C6          -4.5560     1.5960    -1.3660 ca         1 7K1       0.373500
     25 N7          -4.4050     1.3900    -0.0150 na         1 7K1      -0.323400
     26 C8          -0.9550     0.6130    -1.2730 c3         1 7K1       0.007800
     27 C9          -0.1900     1.9370    -1.4960 c3         1 7K1      -0.154400
     28 C10         -3.2380     1.3860    -3.3850 ca         1 7K1      -0.023000
     29 O13          2.1160     1.6010    -2.0340 o          1 7K1      -0.585100
     30 N27          1.6690     1.6630     0.2290 n          1 7K1      -0.394800
     31 C31          3.1070     1.3670     0.6070 c6         1 7K1       0.059400
     32 O32          2.6510     2.1810     2.8970 os         1 7K1      -0.439000
     33 C33          3.6580     0.1210    -0.0740 cc         1 7K1       0.429800
     34 C34          4.9640    -1.1310    -1.3610 ca         1 7K1      -0.071200
     35 C35          4.0680    -1.9150    -0.6960 ca         1 7K1       0.071400
     36 C36          4.0650    -3.3060    -0.8740 ca         1 7K1      -0.055000
     37 C37          5.0090    -3.8690    -1.7630 ca         1 7K1      -0.134000
     38 C38          5.9310    -3.0410    -2.4490 ca         1 7K1      -0.094000
     39 C39          5.9160    -1.6450    -2.2500 ca         1 7K1      -0.112000
     40 N40          4.7220     0.1500    -0.9770 na         1 7K1      -0.296600
     41 N41          3.2400    -1.1510     0.1200 nd         1 7K1      -0.580100
     42 H1          -4.3380     1.9620    -5.1670 ha         1 7K1       0.121000
     43 H2          -6.4270     2.5180    -3.8960 h4         1 7K1       0.017100
     44 H3          -0.7660    -1.7410     3.3680 ha         1 7K1       0.123000
     45 H4          -2.6800     1.8720     4.7030 ha         1 7K1       0.115000
     46 H5          -3.5240     2.2790     2.4280 ha         1 7K1       0.118000
     47 H6           0.4970    -2.0180     1.2940 ha         1 7K1       0.120000
     48 H7           0.8660    -3.8110    -0.3740 ha         1 7K1       0.121000
     49 H8          -1.0070    -4.5800    -1.8270 ha         1 7K1       0.112000
     50 H9          -3.2670    -3.5540    -1.5880 ha         1 7K1       0.121000
     51 H10         -3.6540    -1.7710     0.0880 ha         1 7K1       0.120000
     52 H11         -0.0660     0.1970     5.6700 hc         1 7K1       0.044700
     53 H12         -1.7020     0.3090     6.3400 hc         1 7K1       0.044700
     54 H13         -1.0680    -1.2570     5.8200 hc         1 7K1       0.044700
     55 H15          0.7650     3.3540     1.1410 h1         1 7K1       0.055200
     56 H16          0.7120     2.6980     3.4360 h1         1 7K1       0.058200
     57 H17          0.9640     0.9800     3.0540 h1         1 7K1       0.058200
     58 H18          3.0840     0.2030     2.4690 h1         1 7K1       0.070200
     59 H19          4.4540     1.3230     2.3300 h1         1 7K1       0.070200
     60 H20         -5.1270     1.5190     0.6790 hn         1 7K1       0.361000
     61 H21         -0.4960     0.1120    -0.4220 hc         1 7K1       0.066200
     62 H22         -0.8110    -0.0530    -2.1330 hc         1 7K1       0.066200
     63 H23         -0.6430     2.6810    -0.8320 hc         1 7K1       0.065200
     64 H24         -0.3000     2.2560    -2.5380 hc         1 7K1       0.065200
     65 H25         -2.3110     1.1320    -3.8940 ha         1 7K1       0.122000
     66 H26          3.6980     2.2320     0.2740 h1         1 7K1       0.050700
     67 H27          3.3570    -3.9330    -0.3400 ha         1 7K1       0.123000
     68 H28          5.0280    -4.9450    -1.9190 ha         1 7K1       0.113000
     69 H29          6.6550    -3.4840    -3.1310 ha         1 7K1       0.112000
     70 H30          6.6180    -0.9940    -2.7670 ha         1 7K1       0.117000
     71 H31          5.1960     0.9820    -1.3030 hn         1 7K1       0.358000
     72 H14         -0.2260     1.8930     1.1980 h1         1 7K1       0.055200
@<TRIPOS>BOND
     1     1     4 2   
     2     1    23 1   
     3     1    26 1   
     4     2     3 ar  
     5     2    28 ar  
     6     2    42 1   
     7     3    22 ar  
     8     3    43 1   
     9     4     6 1   
    10     4    25 1   
    11     5    27 1   
    12     5    29 2   
    13     5    30 1   
    14     6     7 ar  
    15     6    11 ar  
    16     7     8 ar  
    17     7    12 1   
    18     8     9 ar  
    19     8    44 1   
    20     9    10 ar  
    21     9    18 1   
    22    10    11 ar  
    23    10    45 1   
    24    11    46 1   
    25    12    13 ar  
    26    12    17 ar  
    27    13    14 ar  
    28    13    47 1   
    29    14    15 ar  
    30    14    48 1   
    31    15    16 ar  
    32    15    49 1   
    33    16    17 ar  
    34    16    50 1   
    35    17    51 1   
    36    18    52 1   
    37    18    53 1   
    38    18    54 1   
    39    19    20 1   
    40    19    30 1   
    41    19    55 1   
    42    19    72 1   
    43    20    32 1   
    44    20    56 1   
    45    20    57 1   
    46    21    31 1   
    47    21    32 1   
    48    21    58 1   
    49    21    59 1   
    50    22    24 ar  
    51    23    24 ar  
    52    23    28 ar  
    53    24    25 1   
    54    25    60 1   
    55    26    27 1   
    56    26    61 1   
    57    26    62 1   
    58    27    63 1   
    59    27    64 1   
    60    28    65 1   
    61    30    31 1   
    62    31    33 1   
    63    31    66 1   
    64    33    40 1   
    65    33    41 2   
    66    34    35 ar  
    67    34    39 ar  
    68    34    40 1   
    69    35    36 ar  
    70    35    41 1   
    71    36    37 ar  
    72    36    67 1   
    73    37    38 ar  
    74    37    68 1   
    75    38    39 ar  
    76    38    69 1   
    77    39    70 1   
    78    40    71 1   
@<TRIPOS>SUBSTRUCTURE
     1 7K1         1 TEMP              0 ****  ****    0 ROOT
