@<TRIPOS>MOLECULE
7K1
   72    78     1     0     0
SMALL
abcg2


@<TRIPOS>ATOM
      1 C1          -2.5200     0.9700    -1.2470 cc         1 7K1      -0.103400
      2 C2          -4.5490     1.6170    -4.3720 ca         1 7K1      -0.201000
      3 C3          -5.7710     1.5910    -3.6900 ca         1 7K1       0.358900
      4 C11         -3.2740     0.8340    -0.1030 cd         1 7K1       0.000700
      5 C12          1.2180     1.2990    -0.3470 c          1 7K1       0.601100
      6 C14         -2.8710     0.6450     1.2990 ca         1 7K1      -0.048800
      7 C15         -2.0320    -0.4000     1.7120 cp         1 7K1       0.004000
      8 C16         -1.5760    -0.4210     3.0290 ca         1 7K1      -0.109000
      9 C17         -1.9500     0.5410     3.9610 ca         1 7K1      -0.071300
     10 C18         -2.8280     1.5420     3.5490 ca         1 7K1      -0.119000
     11 C19         -3.2750     1.5930     2.2410 ca         1 7K1      -0.102000
     12 C20         -1.6050    -1.4720     0.7890 cp         1 7K1      -0.060000
     13 C21         -0.2540    -1.7900     0.6580 ca         1 7K1      -0.090500
     14 C22          0.1530    -2.7990    -0.2040 ca         1 7K1      -0.108500
     15 C23         -0.7840    -3.5060    -0.9420 ca         1 7K1      -0.106000
     16 C24         -2.1340    -3.1980    -0.8160 ca         1 7K1      -0.108500
     17 C25         -2.5410    -2.1880     0.0420 ca         1 7K1      -0.090500
     18 C26         -1.4120     0.5130     5.3600 c3         1 7K1      -0.048800
     19 C28          1.4100     2.1490     1.9580 c6         1 7K1       0.056000
     20 C29          1.9290     1.6460     3.2860 c6         1 7K1       0.140600
     21 C30          3.7310     0.6260     2.2960 c6         1 7K1       0.143600
     22 N4          -5.8890     1.3940    -2.3840 nb         1 7K1      -0.686000
     23 C5          -3.4520     1.2080    -2.3040 ca         1 7K1      -0.137800
     24 C6          -4.7480     1.2130    -1.7390 ca         1 7K1       0.373500
     25 N7          -4.6070     0.9970    -0.4070 na         1 7K1      -0.323400
     26 C8          -1.0350     0.8740    -1.4210 c3         1 7K1       0.007800
     27 C9          -0.2570     1.6290    -0.3430 c3         1 7K1      -0.154400
     28 C10         -3.3660     1.4250    -3.6780 ca         1 7K1      -0.023000
     29 O13          1.7940     1.0100    -1.3820 o          1 7K1      -0.585100
     30 N27          1.8670     1.3050     0.8560 n          1 7K1      -0.394800
     31 C31          3.3040     1.0350     0.8780 c6         1 7K1       0.059400
     32 O32          3.3320     1.5490     3.2710 os         1 7K1      -0.439000
     33 C33          3.7140    -0.0900    -0.0200 cc         1 7K1       0.429800
     34 C34          4.8740    -1.1480    -1.5540 ca         1 7K1      -0.071200
     35 C35          4.0290    -2.0230    -0.8490 ca         1 7K1       0.071400
     36 C36          4.0110    -3.3780    -1.1760 ca         1 7K1      -0.055000
     37 C37          4.8310    -3.8120    -2.2030 ca         1 7K1      -0.134000
     38 C38          5.6640    -2.9230    -2.8980 ca         1 7K1      -0.094000
     39 C39          5.7030    -1.5740    -2.5850 ca         1 7K1      -0.112000
     40 N40          4.6560     0.0750    -0.9810 na         1 7K1      -0.296600
     41 N41          3.3310    -1.3290     0.1110 nd         1 7K1      -0.580100
     42 H1          -4.5420     1.7840    -5.4400 ha         1 7K1       0.121000
     43 H2          -6.6940     1.7400    -4.2390 h4         1 7K1       0.017100
     44 H3          -0.9260    -1.2310     3.3410 ha         1 7K1       0.123000
     45 H4          -3.1520     2.2990     4.2520 ha         1 7K1       0.115000
     46 H5          -3.9190     2.4090     1.9350 ha         1 7K1       0.118000
     47 H6           0.4940    -1.2260     1.2020 ha         1 7K1       0.120000
     48 H7           1.2080    -3.0130    -0.3020 ha         1 7K1       0.121000
     49 H8          -0.4670    -4.2930    -1.6150 ha         1 7K1       0.112000
     50 H9          -2.8710    -3.7480    -1.3860 ha         1 7K1       0.121000
     51 H10         -3.5950    -1.9620     0.1390 ha         1 7K1       0.120000
     52 H11         -0.5840     1.2170     5.4710 hc         1 7K1       0.044700
     53 H12         -2.1730     0.7980     6.0860 hc         1 7K1       0.044700
     54 H13         -1.0390    -0.4740     5.6280 hc         1 7K1       0.044700
     55 H15          1.7410     3.1820     1.8010 h1         1 7K1       0.055200
     56 H16          1.6480     2.3470     4.0730 h1         1 7K1       0.058200
     57 H17          1.4770     0.6700     3.5180 h1         1 7K1       0.058200
     58 H18          3.3140    -0.3660     2.5100 h1         1 7K1       0.070200
     59 H19          4.8190     0.5550     2.3280 h1         1 7K1       0.070200
     60 H20         -5.3650     0.9010     0.2490 hn         1 7K1       0.361000
     61 H21         -0.7370    -0.1780    -1.4160 hc         1 7K1       0.066200
     62 H22         -0.7670     1.2600    -2.4060 hc         1 7K1       0.066200
     63 H23         -0.6870     1.4090     0.6280 hc         1 7K1       0.065200
     64 H24         -0.3760     2.7090    -0.4820 hc         1 7K1       0.065200
     65 H25         -2.4130     1.4420    -4.1920 ha         1 7K1       0.122000
     66 H26          3.8530     1.9390     0.5840 h1         1 7K1       0.050700
     67 H27          3.3760    -4.0720    -0.6390 ha         1 7K1       0.123000
     68 H28          4.8330    -4.8590    -2.4770 ha         1 7K1       0.113000
     69 H29          6.2900    -3.3000    -3.6960 ha         1 7K1       0.112000
     70 H30          6.3510    -0.8910    -3.1180 ha         1 7K1       0.117000
     71 H31          5.0580     0.9530    -1.2670 hn         1 7K1       0.358000
     72 H14          0.3250     2.1620     2.0080 h1         1 7K1       0.055200
@<TRIPOS>BOND
     1     1     4 2   
     2     1    23 1   
     3     1    26 1   
     4     2     3 ar  
     5     2    28 ar  
     6     2    42 1   
     7     3    22 ar  
     8     3    43 1   
     9     4     6 1   
    10     4    25 1   
    11     5    27 1   
    12     5    29 2   
    13     5    30 1   
    14     6     7 ar  
    15     6    11 ar  
    16     7     8 ar  
    17     7    12 1   
    18     8     9 ar  
    19     8    44 1   
    20     9    10 ar  
    21     9    18 1   
    22    10    11 ar  
    23    10    45 1   
    24    11    46 1   
    25    12    13 ar  
    26    12    17 ar  
    27    13    14 ar  
    28    13    47 1   
    29    14    15 ar  
    30    14    48 1   
    31    15    16 ar  
    32    15    49 1   
    33    16    17 ar  
    34    16    50 1   
    35    17    51 1   
    36    18    52 1   
    37    18    53 1   
    38    18    54 1   
    39    19    20 1   
    40    19    30 1   
    41    19    55 1   
    42    19    72 1   
    43    20    32 1   
    44    20    56 1   
    45    20    57 1   
    46    21    31 1   
    47    21    32 1   
    48    21    58 1   
    49    21    59 1   
    50    22    24 ar  
    51    23    24 ar  
    52    23    28 ar  
    53    24    25 1   
    54    25    60 1   
    55    26    27 1   
    56    26    61 1   
    57    26    62 1   
    58    27    63 1   
    59    27    64 1   
    60    28    65 1   
    61    30    31 1   
    62    31    33 1   
    63    31    66 1   
    64    33    40 1   
    65    33    41 2   
    66    34    35 ar  
    67    34    39 ar  
    68    34    40 1   
    69    35    36 ar  
    70    35    41 1   
    71    36    37 ar  
    72    36    67 1   
    73    37    38 ar  
    74    37    68 1   
    75    38    39 ar  
    76    38    69 1   
    77    39    70 1   
    78    40    71 1   
@<TRIPOS>SUBSTRUCTURE
     1 7K1         1 TEMP              0 ****  ****    0 ROOT
