@<TRIPOS>MOLECULE
7K2
   44    45     1     0     0
SMALL
No Charge or Current Charge


@<TRIPOS>ATOM
      1 O2           3.1460   -33.2570    -5.4620 oh         1 7K2      -0.713000
      2 C2           2.4900   -32.0920    -6.0120 c6         1 7K2       0.159300
      3 C3           2.1690   -31.1000    -4.8530 c6         1 7K2       0.130300
      4 O3           1.4780   -31.7800    -3.7870 oh         1 7K2      -0.672000
      5 C4           3.4660   -30.4330    -4.3000 c6         1 7K2       0.111300
      6 O4           3.1200   -29.4830    -3.2650 oh         1 7K2      -0.734000
      7 C5           4.2540   -29.7690    -5.4750 c6         1 7K2       0.137300
      8 C6           5.6180   -29.1440    -5.0300 c3         1 7K2       0.164600
      9 O5           4.5290   -30.7600    -6.5020 os         1 7K2      -0.418000
     10 C1           3.3590   -31.3710    -7.0980 c6         1 7K2       0.325300
     11 S1           2.4190   -30.0960    -8.0750 ss         1 7K2      -0.507000
     12 C6A          3.7200   -29.5380    -9.2770 c3         1 7K2       0.084600
     13 C5A          4.1030   -30.6040   -10.3500 c6         1 7K2      -0.083700
     14 C1A          2.8540   -31.0690   -11.1560 c6         1 7K2       0.159800
     15 N            3.2030   -32.0810   -12.1820 n7         1 7K2      -0.866400
     16 C2A          4.2410   -31.6050   -13.1360 c6         1 7K2       0.157800
     17 C3A          5.5370   -31.1620   -12.3990 c6         1 7K2       0.169300
     18 O3A          6.5180   -30.6510   -13.3200 oh         1 7K2      -0.667000
     19 C4A          5.1980   -30.0790   -11.3280 c6         1 7K2       0.135300
     20 O4A          6.3970   -29.7080   -10.6210 oh         1 7K2      -0.670000
     21 HO2          2.6990   -33.3900    -4.5900 ho         1 7K2       0.526000
     22 H2           1.5410   -32.3890    -6.4820 h1         1 7K2       0.070700
     23 H3           1.5280   -30.3020    -5.2600 h1         1 7K2       0.067700
     24 HO3          1.4940   -31.1450    -3.0330 ho         1 7K2       0.467000
     25 H4           4.1040   -31.2280    -3.8810 h1         1 7K2       0.081700
     26 HO4          3.9360   -29.3200    -2.7330 ho         1 7K2       0.514000
     27 H5           3.6470   -28.9590    -5.9050 h1         1 7K2       0.064700
     28 H61          6.0660   -28.6670    -5.9130 h1         1 7K2       0.035200
     29 H62          5.4160   -28.3440    -4.3060 h1         1 7K2       0.035200
     30 H1           3.6830   -32.1350    -7.8210 h2         1 7K2       0.119700
     31 H12          4.6150   -29.2510    -8.7090 h1         1 7K2       0.069700
     32 H13          3.3500   -28.6410    -9.7910 h1         1 7K2       0.069700
     33 H14          4.5090   -31.4690    -9.8110 hc         1 7K2       0.086700
     34 H15          2.3890   -30.1990   -11.6440 h1         1 7K2       0.042200
     35 H16          2.1070   -31.5020   -10.4750 h1         1 7K2       0.042200
     36 H17          2.3540   -32.3320   -12.7080 hn         1 7K2       0.423000
     37 H19          3.8440   -30.7590   -13.7180 h1         1 7K2       0.046700
     38 H20          4.4820   -32.4120   -13.8440 h1         1 7K2       0.046700
     39 H21          5.9430   -32.0410   -11.8760 h1         1 7K2       0.064700
     40 H22          7.1580   -30.1640   -12.7530 ho         1 7K2       0.457000
     41 H23          4.7940   -29.2000   -11.8530 h1         1 7K2       0.037700
     42 H24          6.2620   -28.7980   -10.2750 ho         1 7K2       0.443000
     43 O6           6.5400   -30.1020    -4.4700 oh         1 7K2      -0.718000
     44 HO6          7.4080   -29.6440    -4.3720 ho         1 7K2       0.504000
@<TRIPOS>BOND
     1     1     2 1   
     2     1    21 1   
     3     2     3 1   
     4     2    10 1   
     5     2    22 1   
     6     3     4 1   
     7     3     5 1   
     8     3    23 1   
     9     4    24 1   
    10     5     6 1   
    11     5     7 1   
    12     5    25 1   
    13     6    26 1   
    14     7     8 1   
    15     7     9 1   
    16     7    27 1   
    17     8    28 1   
    18     8    29 1   
    19     8    43 1   
    20     9    10 1   
    21    10    11 1   
    22    10    30 1   
    23    11    12 1   
    24    12    13 1   
    25    12    31 1   
    26    12    32 1   
    27    13    14 1   
    28    13    19 1   
    29    13    33 1   
    30    14    15 1   
    31    14    34 1   
    32    14    35 1   
    33    15    16 1   
    34    15    36 1   
    35    16    17 1   
    36    16    37 1   
    37    16    38 1   
    38    17    18 1   
    39    17    19 1   
    40    17    39 1   
    41    18    40 1   
    42    19    20 1   
    43    19    41 1   
    44    20    42 1   
    45    43    44 1   
@<TRIPOS>SUBSTRUCTURE
     1 7K2         1 TEMP              0 ****  ****    0 ROOT
