@<TRIPOS>MOLECULE
7K2
   44    45     1     0     0
SMALL
abcg2


@<TRIPOS>ATOM
      1 O2           2.9840   -33.1510    -5.5390 oh         1 7K2      -0.713000
      2 C2           2.3600   -31.9500    -5.9840 c6         1 7K2       0.159300
      3 C3           2.2360   -30.9430    -4.8420 c6         1 7K2       0.130300
      4 O3           1.5850   -31.6100    -3.7630 oh         1 7K2      -0.672000
      5 C4           3.5990   -30.4130    -4.4290 c6         1 7K2       0.111300
      6 O4           3.3710   -29.4270    -3.4210 oh         1 7K2      -0.734000
      7 C5           4.3080   -29.8230    -5.6520 c6         1 7K2       0.137300
      8 C6           5.6890   -29.2840    -5.3580 c3         1 7K2       0.164600
      9 O5           4.4330   -30.8390    -6.6560 os         1 7K2      -0.418000
     10 C1           3.2190   -31.3850    -7.1140 c6         1 7K2       0.325300
     11 S1           2.1990   -30.1970    -8.0930 ss         1 7K2      -0.507000
     12 C6A          3.4570   -29.6110    -9.2740 c3         1 7K2       0.084600
     13 C5A          3.9760   -30.6490   -10.2670 c6         1 7K2      -0.083700
     14 C1A          2.8730   -31.1800   -11.1830 c6         1 7K2       0.159800
     15 N            3.4250   -32.1480   -12.1270 n7         1 7K2      -0.866400
     16 C2A          4.4070   -31.5310   -13.0130 c6         1 7K2       0.157800
     17 C3A          5.5750   -31.0310   -12.1790 c6         1 7K2       0.169300
     18 O3A          6.5240   -30.4210   -13.0520 oh         1 7K2      -0.667000
     19 C4A          5.1010   -30.0450   -11.1200 c6         1 7K2       0.135300
     20 O4A          6.2550   -29.7000   -10.3390 oh         1 7K2      -0.670000
     21 HO2          2.6130   -33.3490    -4.6670 ho         1 7K2       0.526000
     22 H2           1.3600   -32.1730    -6.3710 h1         1 7K2       0.070700
     23 H3           1.6250   -30.1000    -5.1840 h1         1 7K2       0.067700
     24 HO3          1.7060   -31.0650    -2.9740 ho         1 7K2       0.467000
     25 H4           4.2000   -31.2310    -4.0290 h1         1 7K2       0.081700
     26 HO4          4.1550   -29.3630    -2.8630 ho         1 7K2       0.514000
     27 H5           3.7070   -28.9950    -6.0440 h1         1 7K2       0.064700
     28 H61          6.1510   -28.9790    -6.3030 h1         1 7K2       0.035200
     29 H62          5.5850   -28.3990    -4.7240 h1         1 7K2       0.035200
     30 H1           3.5040   -32.2000    -7.7760 h2         1 7K2       0.119700
     31 H12          4.2770   -29.1940    -8.6930 h1         1 7K2       0.069700
     32 H13          2.9680   -28.7900    -9.8020 h1         1 7K2       0.069700
     33 H14          4.4070   -31.4920    -9.7200 hc         1 7K2       0.086700
     34 H15          2.3980   -30.3260   -11.6950 h1         1 7K2       0.042200
     35 H16          2.1040   -31.6700   -10.5850 h1         1 7K2       0.042200
     36 H17          2.6780   -32.5570   -12.6760 hn         1 7K2       0.423000
     37 H19          3.9920   -30.6790   -13.5770 h1         1 7K2       0.046700
     38 H20          4.7620   -32.2690   -13.7340 h1         1 7K2       0.046700
     39 H21          6.0370   -31.8840   -11.6650 h1         1 7K2       0.064700
     40 H22          7.1790   -29.9840   -12.4910 ho         1 7K2       0.457000
     41 H23          4.7270   -29.1510   -11.6310 h1         1 7K2       0.037700
     42 H24          6.1700   -28.7920   -10.0290 ho         1 7K2       0.443000
     43 O6           6.4710   -30.2850    -4.7080 oh         1 7K2      -0.718000
     44 HO6          7.3350   -29.9080    -4.5050 ho         1 7K2       0.504000
@<TRIPOS>BOND
     1     1     2 1   
     2     1    21 1   
     3     2     3 1   
     4     2    10 1   
     5     2    22 1   
     6     3     4 1   
     7     3     5 1   
     8     3    23 1   
     9     4    24 1   
    10     5     6 1   
    11     5     7 1   
    12     5    25 1   
    13     6    26 1   
    14     7     8 1   
    15     7     9 1   
    16     7    27 1   
    17     8    28 1   
    18     8    29 1   
    19     8    43 1   
    20     9    10 1   
    21    10    11 1   
    22    10    30 1   
    23    11    12 1   
    24    12    13 1   
    25    12    31 1   
    26    12    32 1   
    27    13    14 1   
    28    13    19 1   
    29    13    33 1   
    30    14    15 1   
    31    14    34 1   
    32    14    35 1   
    33    15    16 1   
    34    15    36 1   
    35    16    17 1   
    36    16    37 1   
    37    16    38 1   
    38    17    18 1   
    39    17    19 1   
    40    17    39 1   
    41    18    40 1   
    42    19    20 1   
    43    19    41 1   
    44    20    42 1   
    45    43    44 1   
@<TRIPOS>SUBSTRUCTURE
     1 7K2         1 TEMP              0 ****  ****    0 ROOT
