@<TRIPOS>MOLECULE
7K3
   24    24     1     0     0
SMALL
No Charge or Current Charge


@<TRIPOS>ATOM
      1 C7          -0.4440    -1.4440     0.4730 c6         1 7K3       0.311300
      2 C9           1.1340     0.3310    -0.1420 c6         1 7K3       0.162300
      3 C12         -1.6700    -0.4630     0.4120 c6         1 7K3       0.124300
      4 C13          2.4920     0.9500     0.3260 c3         1 7K3       0.171600
      5 O17         -1.9900     0.0980     1.7120 oh         1 7K3      -0.690000
      6 C11         -1.3550     0.7000    -0.5770 c6         1 7K3       0.139300
      7 O16         -2.4280     1.6600    -0.5540 oh         1 7K3      -0.649000
      8 C10         -0.0060     1.3930    -0.2080 c6         1 7K3       0.147300
      9 O15          0.2800     2.4370    -1.1620 oh         1 7K3      -0.722000
     10 O14          3.5530    -0.0210     0.4480 oh         1 7K3      -0.713000
     11 O8           0.7750    -0.7310     0.7870 os         1 7K3      -0.415000
     12 S1          -0.2190    -2.3720    -1.1390 sh         1 7K3      -0.520800
     13 H1          -0.6290    -2.1940     1.2570 h2         1 7K3       0.090700
     14 H2           1.2920    -0.0950    -1.1430 h1         1 7K3       0.079700
     15 H3          -2.5350    -1.0230     0.0260 h1         1 7K3       0.053700
     16 H4           2.7810     1.7280    -0.3930 h1         1 7K3       0.037700
     17 H5           2.3240     1.4470     1.2910 h1         1 7K3       0.037700
     18 H6          -2.2910    -0.6400     2.2920 ho         1 7K3       0.504000
     19 H7          -1.2600     0.2780    -1.5890 h1         1 7K3       0.060700
     20 H8          -2.7670     1.6220     0.3710 ho         1 7K3       0.450000
     21 H9          -0.1110     1.8310     0.7970 h1         1 7K3       0.070700
     22 H10         -0.5940     2.8560    -1.3550 ho         1 7K3       0.523000
     23 H11          4.3400     0.4550     0.8040 ho         1 7K3       0.503000
     24 H12          0.8660    -3.0710    -0.7190 hs         1 7K3       0.241800
@<TRIPOS>BOND
     1     1     3 1   
     2     1    11 1   
     3     1    12 1   
     4     1    13 1   
     5     2     4 1   
     6     2     8 1   
     7     2    11 1   
     8     2    14 1   
     9     3     5 1   
    10     3     6 1   
    11     3    15 1   
    12     4    10 1   
    13     4    16 1   
    14     4    17 1   
    15     5    18 1   
    16     6     7 1   
    17     6     8 1   
    18     6    19 1   
    19     7    20 1   
    20     8     9 1   
    21     8    21 1   
    22     9    22 1   
    23    10    23 1   
    24    12    24 1   
@<TRIPOS>SUBSTRUCTURE
     1 7K3         1 TEMP              0 ****  ****    0 ROOT
