@<TRIPOS>MOLECULE
7K3
   24    24     1     0     0
SMALL
abcg2


@<TRIPOS>ATOM
      1 C7          -0.3620    -1.3870     0.5180 c6         1 7K3       0.311300
      2 C9           1.1210     0.3640    -0.1160 c6         1 7K3       0.162300
      3 C12         -1.5780    -0.4530     0.5310 c6         1 7K3       0.124300
      4 C13          2.4290     0.9720     0.3440 c3         1 7K3       0.171600
      5 O17         -1.7610     0.0850     1.8150 oh         1 7K3      -0.690000
      6 C11         -1.3320     0.7020    -0.4370 c6         1 7K3       0.139300
      7 O16         -2.3450     1.6770    -0.3840 oh         1 7K3      -0.649000
      8 C10         -0.0100     1.3940    -0.1220 c6         1 7K3       0.147300
      9 O15          0.2990     2.3610    -1.0980 oh         1 7K3      -0.722000
     10 O14          3.4450     0.0020     0.2430 oh         1 7K3      -0.713000
     11 O8           0.8210    -0.7010     0.7670 os         1 7K3      -0.415000
     12 S1          -0.3520    -2.3290    -1.0660 sh         1 7K3      -0.520800
     13 H1          -0.4610    -2.1250     1.3150 h2         1 7K3       0.090700
     14 H2           1.2460    -0.0230    -1.1380 h1         1 7K3       0.079700
     15 H3          -2.4610    -1.0200     0.2070 h1         1 7K3       0.053700
     16 H4           2.6410     1.8450    -0.2830 h1         1 7K3       0.037700
     17 H5           2.3130     1.3370     1.3740 h1         1 7K3       0.037700
     18 H6          -2.0480    -0.6190     2.4050 ho         1 7K3       0.504000
     19 H7          -1.2560     0.2810    -1.4500 h1         1 7K3       0.060700
     20 H8          -3.1030     1.3650    -0.8890 ho         1 7K3       0.450000
     21 H9          -0.0760     1.8530     0.8750 h1         1 7K3       0.070700
     22 H10         -0.4440     2.9720    -1.1510 ho         1 7K3       0.523000
     23 H11          4.2830     0.4320     0.4330 ho         1 7K3       0.503000
     24 H12          0.5330    -3.2530    -0.6780 hs         1 7K3       0.241800
@<TRIPOS>BOND
     1     1     3 1   
     2     1    11 1   
     3     1    12 1   
     4     1    13 1   
     5     2     4 1   
     6     2     8 1   
     7     2    11 1   
     8     2    14 1   
     9     3     5 1   
    10     3     6 1   
    11     3    15 1   
    12     4    10 1   
    13     4    16 1   
    14     4    17 1   
    15     5    18 1   
    16     6     7 1   
    17     6     8 1   
    18     6    19 1   
    19     7    20 1   
    20     8     9 1   
    21     8    21 1   
    22     9    22 1   
    23    10    23 1   
    24    12    24 1   
@<TRIPOS>SUBSTRUCTURE
     1 7K3         1 TEMP              0 ****  ****    0 ROOT
