@<TRIPOS>MOLECULE
7K4
   44    46     1     0     0
SMALL
bcc


@<TRIPOS>ATOM
      1 C1           4.4200     1.7140     0.1460 c3         1 7K4      -0.086100
      2 C2           3.2260     0.7630     0.2260 c5         1 7K4      -0.007700
      3 C3           2.1930     1.1780    -0.8480 c5         1 7K4       0.099000
      4 N4           1.3870     2.1790    -0.1840 n          1 7K4      -0.482800
      5 C5           0.4230     2.9670    -0.9030 c3         1 7K4       0.108000
      6 C6          -0.7300     2.1350    -1.4330 c3         1 7K4       0.112400
      7 C8          -2.2890     0.5730    -0.5480 ca         1 7K4       0.128100
      8 C10         -3.8700    -0.6350    -1.9240 ca         1 7K4      -0.135000
      9 C11         -4.2920    -1.3300    -0.8160 ca         1 7K4       0.132900
     10 C13         -3.7290    -1.0890     0.4330 ca         1 7K4      -0.021000
     11 C14         -4.1860    -1.8250     1.5640 cg         1 7K4       0.236800
     12 C16         -2.7250    -0.1380     0.5670 ca         1 7K4      -0.103000
     13 C19          2.4580     1.0520     1.5280 c5         1 7K4      -0.164400
     14 C21          2.6250    -1.6870     0.1320 ca         1 7K4      -0.124000
     15 C22          2.9420    -3.0310     0.0220 ca         1 7K4      -0.127000
     16 C23          4.2660    -3.4270    -0.1310 ca         1 7K4      -0.123000
     17 C24          5.2580    -2.4610    -0.1720 ca         1 7K4      -0.127000
     18 C25          4.9340    -1.1130    -0.0620 ca         1 7K4      -0.124000
     19 O7          -1.3220     1.4760    -0.3300 os         1 7K4      -0.305900
     20 C9          -2.8680     0.3190    -1.7920 ca         1 7K4      -0.177000
     21 F12         -5.2540    -2.2510    -0.9160 f          1 7K4      -0.126900
     22 N15         -4.5490    -2.4160     2.4830 n1         1 7K4      -0.342800
     23 C17          1.4660     2.1330     1.1620 c          1 7K4       0.711500
     24 O18          0.8390     2.8310     1.9400 o          1 7K4      -0.616500
     25 C20          3.6140    -0.7000     0.0920 ca         1 7K4      -0.072300
     26 H28          5.1270     1.5370     0.9580 hc         1 7K4       0.042700
     27 H26          4.9550     1.6200    -0.8000 hc         1 7K4       0.042700
     28 H27          4.0830     2.7480     0.2270 hc         1 7K4       0.042700
     29 H29          2.6780     1.5950    -1.7340 h1         1 7K4       0.048200
     30 H30          1.5820     0.3330    -1.1790 h1         1 7K4       0.048200
     31 H32          0.0510     3.7510    -0.2440 h1         1 7K4       0.072200
     32 H31          0.9050     3.4560    -1.7530 h1         1 7K4       0.072200
     33 H34         -1.4450     2.7950    -1.9350 h1         1 7K4       0.040200
     34 H33         -0.3740     1.4060    -2.1710 h1         1 7K4       0.040200
     35 H36         -4.3170    -0.8260    -2.8900 ha         1 7K4       0.155000
     36 H37         -2.2810     0.0490     1.5360 ha         1 7K4       0.166000
     37 H38          1.8950     0.1850     1.8840 hc         1 7K4       0.082200
     38 H39          3.1060     1.3650     2.3470 hc         1 7K4       0.082200
     39 H40          1.5830    -1.4110     0.2510 ha         1 7K4       0.131000
     40 H41          2.1540    -3.7720     0.0550 ha         1 7K4       0.132500
     41 H42          4.5170    -4.4760    -0.2170 ha         1 7K4       0.133000
     42 H43          6.2950    -2.7500    -0.2920 ha         1 7K4       0.132500
     43 H44          5.7340    -0.3870    -0.0980 ha         1 7K4       0.131000
     44 H35         -2.5580     0.8580    -2.6760 ha         1 7K4       0.142000
@<TRIPOS>BOND
     1     1     2 1   
     2     1    26 1   
     3     1    27 1   
     4     1    28 1   
     5     2     3 1   
     6     2    13 1   
     7     2    25 1   
     8     3     4 1   
     9     3    29 1   
    10     3    30 1   
    11     4     5 1   
    12     4    23 1   
    13     5     6 1   
    14     5    31 1   
    15     5    32 1   
    16     6    19 1   
    17     6    33 1   
    18     6    34 1   
    19     7    12 ar  
    20     7    19 1   
    21     7    20 ar  
    22     8     9 ar  
    23     8    20 ar  
    24     8    35 1   
    25     9    10 ar  
    26     9    21 1   
    27    10    11 1   
    28    10    12 ar  
    29    11    22 3   
    30    12    36 1   
    31    13    23 1   
    32    13    37 1   
    33    13    38 1   
    34    14    15 ar  
    35    14    25 ar  
    36    14    39 1   
    37    15    16 ar  
    38    15    40 1   
    39    16    17 ar  
    40    16    41 1   
    41    17    18 ar  
    42    17    42 1   
    43    18    25 ar  
    44    18    43 1   
    45    20    44 1   
    46    23    24 2   
@<TRIPOS>SUBSTRUCTURE
     1 7K4         1 TEMP              0 ****  ****    0 ROOT
