@<TRIPOS>MOLECULE
7K4
   44    46     1     0     0
SMALL
No Charge or Current Charge


@<TRIPOS>ATOM
      1 C1           4.4290     1.8700     0.3340 c3         1 7K4      -0.086100
      2 C2           3.4110     0.6970     0.2410 c5         1 7K4      -0.007700
      3 C3           2.3780     0.9230    -0.9270 c5         1 7K4       0.099000
      4 N4           1.3400     1.7350    -0.2560 n          1 7K4      -0.415800
      5 C5           0.4050     2.6280    -0.9770 c3         1 7K4       0.108000
      6 C6          -0.8480     1.9000    -1.5070 c3         1 7K4       0.135600
      7 C8          -2.7150     0.6070    -0.5340 ca         1 7K4       0.128100
      8 C10         -4.4710    -0.4150    -1.8850 ca         1 7K4      -0.117000
      9 C11         -5.0730    -0.9220    -0.7210 ca         1 7K4       0.168000
     10 C13         -4.5020    -0.6690     0.5410 ca         1 7K4      -0.021000
     11 C14         -5.1100    -1.1830     1.7370 cg         1 7K4       0.326000
     12 C16         -3.3220     0.0980     0.6270 ca         1 7K4      -0.085000
     13 C19          2.4490     0.6710     1.4720 c5         1 7K4      -0.164400
     14 C21          3.2270    -1.8750    -0.0890 ca         1 7K4      -0.106000
     15 C22          3.7940    -3.1530    -0.2310 ca         1 7K4      -0.109000
     16 C23          5.1850    -3.3140    -0.2030 ca         1 7K4      -0.105000
     17 C24          6.0060    -2.1930    -0.0310 ca         1 7K4      -0.109000
     18 C25          5.4410    -0.9140     0.1110 ca         1 7K4      -0.106000
     19 O7          -1.5610     1.3480    -0.3830 os         1 7K4      -0.329100
     20 C9          -3.2930     0.3490    -1.7960 ca         1 7K4      -0.159000
     21 F12         -6.2060    -1.6550    -0.8330 f          1 7K4      -0.162000
     22 N15         -5.5950    -1.5960     2.7160 n1         1 7K4      -0.432000
     23 C17          1.4330     1.7570     1.1390 c          1 7K4       0.569000
     24 O18          0.9540     2.6150     1.8660 o          1 7K4      -0.541000
     25 C20          4.0360    -0.7210     0.0830 ca         1 7K4      -0.072300
     26 H28          5.0720     1.7730     1.2170 hc         1 7K4       0.042700
     27 H26          5.0700     1.9110    -0.5550 hc         1 7K4       0.042700
     28 H27          3.9220     2.8400     0.4100 hc         1 7K4       0.042700
     29 H29          2.8300     1.4530    -1.7760 h1         1 7K4       0.048200
     30 H30          1.9330    -0.0020    -1.3110 h1         1 7K4       0.048200
     31 H32          0.0880     3.4530    -0.3260 h1         1 7K4       0.072200
     32 H31          0.9350     3.0760    -1.8280 h1         1 7K4       0.072200
     33 H34         -1.4770     2.6130    -2.0530 h1         1 7K4       0.040200
     34 H33         -0.5360     1.1050    -2.1970 h1         1 7K4       0.040200
     35 H36         -4.9200    -0.6160    -2.8550 ha         1 7K4       0.137000
     36 H37         -2.8690     0.3010     1.5950 ha         1 7K4       0.148000
     37 H38          1.8920    -0.2680     1.5100 hc         1 7K4       0.082200
     38 H39          2.9200     0.8460     2.4450 hc         1 7K4       0.082200
     39 H40          2.1430    -1.7970    -0.1140 ha         1 7K4       0.113000
     40 H41          3.1500    -4.0200    -0.3620 ha         1 7K4       0.114500
     41 H42          5.6240    -4.3030    -0.3130 ha         1 7K4       0.115000
     42 H43          7.0880    -2.3120    -0.0070 ha         1 7K4       0.114500
     43 H44          6.1200    -0.0780     0.2440 ha         1 7K4       0.113000
     44 H35         -2.8480     0.7300    -2.7110 ha         1 7K4       0.124000
@<TRIPOS>BOND
     1     1     2 1   
     2     1    26 1   
     3     1    27 1   
     4     1    28 1   
     5     2     3 1   
     6     2    13 1   
     7     2    25 1   
     8     3     4 1   
     9     3    29 1   
    10     3    30 1   
    11     4     5 1   
    12     4    23 1   
    13     5     6 1   
    14     5    31 1   
    15     5    32 1   
    16     6    19 1   
    17     6    33 1   
    18     6    34 1   
    19     7    12 ar  
    20     7    19 1   
    21     7    20 ar  
    22     8     9 ar  
    23     8    20 ar  
    24     8    35 1   
    25     9    10 ar  
    26     9    21 1   
    27    10    11 1   
    28    10    12 ar  
    29    11    22 3   
    30    12    36 1   
    31    13    23 1   
    32    13    37 1   
    33    13    38 1   
    34    14    15 ar  
    35    14    25 ar  
    36    14    39 1   
    37    15    16 ar  
    38    15    40 1   
    39    16    17 ar  
    40    16    41 1   
    41    17    18 ar  
    42    17    42 1   
    43    18    25 ar  
    44    18    43 1   
    45    20    44 1   
    46    23    24 2   
@<TRIPOS>SUBSTRUCTURE
     1 7K4         1 TEMP              0 ****  ****    0 ROOT
