@<TRIPOS>MOLECULE
7K6
   71    75     1     0     0
SMALL
abcg2


@<TRIPOS>ATOM
      1 C01        -15.1440     5.4260    49.4400 ce         1 7K6      -0.074400
      2 C02        -15.4880     6.7090    50.1970 c5         1 7K6       0.177500
      3 C03        -15.5620     6.3720    51.7090 c5         1 7K6      -0.065400
      4 C04        -18.7180    -1.0660    47.7770 c3         1 7K6       0.157600
      5 C05        -18.7980    -2.5760    47.7220 c3         1 7K6      -0.082400
      6 C06        -20.1650    -3.0380    47.2210 c3         1 7K6      -0.075400
      7 C07        -20.2710    -4.5560    47.0880 c3         1 7K6      -0.070400
      8 C08        -21.6640    -5.0550    46.6960 c3         1 7K6      -0.060400
      9 C09        -22.1360    -4.5780    45.3220 c3         1 7K6      -0.200400
     10 C10        -19.5590     3.9830    52.2300 ca         1 7K6       0.116100
     11 C11        -19.0930     2.7100    51.9380 ca         1 7K6      -0.117500
     12 C12        -19.7740     1.9340    51.0100 ca         1 7K6      -0.065500
     13 C13        -20.8940     2.4620    50.3840 ca         1 7K6      -0.020900
     14 C14        -21.3560     3.7400    50.6720 ca         1 7K6      -0.065500
     15 C15        -20.6850     4.5080    51.6170 ca         1 7K6      -0.117500
     16 C16        -23.4840    -5.1750    44.8790 c          1 7K6       0.706000
     17 O04        -23.6310    -6.4200    44.9960 o          1 7K6      -0.743500
     18 O05        -24.3410    -4.3790    44.4090 o          1 7K6      -0.743500
     19 BR1        -21.8270     1.4050    49.0920 br         1 7K6      -0.073100
     20 S01        -18.0400     6.0370    52.9040 s6         1 7K6       1.346700
     21 O06        -18.9050     7.0130    52.2980 o          1 7K6      -0.524000
     22 O07        -17.4280     6.3410    54.1680 o          1 7K6      -0.524000
     23 C17        -16.8150     5.4570    51.7270 c5         1 7K6      -0.372700
     24 C18        -16.2740     4.6890    49.4770 cf         1 7K6      -0.057400
     25 C19        -17.2800     5.5530    50.2300 c5         1 7K6       0.219500
     26 O08        -16.8840     6.8810    49.8890 os         1 7K6      -0.415000
     27 C20        -13.8170     5.1460    48.9070 ca         1 7K6      -0.067800
     28 C21        -16.5630     3.3000    49.1250 ca         1 7K6      -0.103800
     29 C22        -12.6910     5.8000    49.4240 ca         1 7K6      -0.058000
     30 C23        -11.4180     5.5510    48.9290 ca         1 7K6      -0.172000
     31 C24        -11.2440     4.6470    47.8850 ca         1 7K6       0.137100
     32 C25        -12.3540     3.9980    47.3400 ca         1 7K6      -0.172000
     33 C26        -13.6170     4.2460    47.8480 ca         1 7K6      -0.058000
     34 C27        -17.7410     2.9700    48.4550 ca         1 7K6      -0.058000
     35 C28        -18.0600     1.6540    48.1450 ca         1 7K6      -0.179000
     36 C29        -17.2010     0.6260    48.5340 ca         1 7K6       0.161100
     37 C30        -16.0160     0.9390    49.2110 ca         1 7K6      -0.179000
     38 C31        -15.7050     2.2550    49.4970 ca         1 7K6      -0.058000
     39 O03        -18.8860     4.6970    53.2340 os         1 7K6      -0.454800
     40 O01        -10.0210     4.3630    47.3540 oh         1 7K6      -0.536100
     41 O02        -17.4400    -0.6920    48.3160 os         1 7K6      -0.354100
     42 H1         -14.9240     7.6010    49.9460 h1         1 7K6       0.102700
     43 H2         -14.6820     5.8570    52.0840 hc         1 7K6       0.068200
     44 H3         -15.7110     7.2820    52.2870 hc         1 7K6       0.068200
     45 H4         -18.8320    -0.6370    46.7770 h1         1 7K6       0.039700
     46 H5         -19.5060    -0.6580    48.4160 h1         1 7K6       0.039700
     47 H6         -18.6100    -2.9820    48.7210 hc         1 7K6       0.048200
     48 H7         -18.0100    -2.9560    47.0650 hc         1 7K6       0.048200
     49 H8         -20.3700    -2.5660    46.2560 hc         1 7K6       0.043700
     50 H9         -20.9400    -2.6820    47.9090 hc         1 7K6       0.043700
     51 H10        -19.5420    -4.9040    46.3470 hc         1 7K6       0.021700
     52 H11        -19.9860    -5.0130    48.0410 hc         1 7K6       0.021700
     53 H12        -22.3860    -4.7350    47.4570 hc         1 7K6       0.042200
     54 H13        -21.6710    -6.1470    46.7040 hc         1 7K6       0.042200
     55 H14        -21.3890    -4.8670    44.5720 hc         1 7K6       0.016700
     56 H15        -22.2120    -3.4910    45.2940 hc         1 7K6       0.016700
     57 H16        -18.2110     2.3300    52.4360 ha         1 7K6       0.143000
     58 H17        -19.4230     0.9410    50.7720 ha         1 7K6       0.142000
     59 H18        -22.2330     4.1330    50.1790 ha         1 7K6       0.142000
     60 H19        -21.0340     5.4990    51.8690 ha         1 7K6       0.143000
     61 H21        -16.5970     4.4370    52.0370 h1         1 7K6       0.112700
     62 H22        -18.3320     5.3830    50.0400 h1         1 7K6       0.111700
     63 H23        -12.8000     6.5070    50.2360 ha         1 7K6       0.120500
     64 H24        -10.5590     6.0610    49.3490 ha         1 7K6       0.123000
     65 H25        -12.2140     3.3090    46.5170 ha         1 7K6       0.123000
     66 H26        -14.4670     3.7430    47.4090 ha         1 7K6       0.120500
     67 H27        -18.4310     3.7530    48.1690 ha         1 7K6       0.116500
     68 H28        -18.9850     1.4420    47.6310 ha         1 7K6       0.131500
     69 H29        -15.3610     0.1340    49.5190 ha         1 7K6       0.131500
     70 H30        -14.7910     2.4820    50.0310 ha         1 7K6       0.116500
     71 H31         -9.3360     4.8720    47.8100 ho         1 7K6       0.461000
@<TRIPOS>BOND
     1     1     2 1   
     2     1    24 2   
     3     1    27 1   
     4     2     3 1   
     5     2    26 1   
     6     2    42 1   
     7     3    23 1   
     8     3    43 1   
     9     3    44 1   
    10     4     5 1   
    11     4    41 1   
    12     4    45 1   
    13     4    46 1   
    14     5     6 1   
    15     5    47 1   
    16     5    48 1   
    17     6     7 1   
    18     6    49 1   
    19     6    50 1   
    20     7     8 1   
    21     7    51 1   
    22     7    52 1   
    23     8     9 1   
    24     8    53 1   
    25     8    54 1   
    26     9    16 1   
    27     9    55 1   
    28     9    56 1   
    29    10    11 ar  
    30    10    15 ar  
    31    10    39 1   
    32    11    12 ar  
    33    11    57 1   
    34    12    13 ar  
    35    12    58 1   
    36    13    14 ar  
    37    13    19 1   
    38    14    15 ar  
    39    14    59 1   
    40    15    60 1   
    41    16    17 1   
    42    16    18 1   
    43    20    21 2   
    44    20    22 2   
    45    20    23 1   
    46    20    39 1   
    47    23    25 1   
    48    23    61 1   
    49    24    25 1   
    50    24    28 1   
    51    25    26 1   
    52    25    62 1   
    53    27    29 ar  
    54    27    33 ar  
    55    28    34 ar  
    56    28    38 ar  
    57    29    30 ar  
    58    29    63 1   
    59    30    31 ar  
    60    30    64 1   
    61    31    32 ar  
    62    31    40 1   
    63    32    33 ar  
    64    32    65 1   
    65    33    66 1   
    66    34    35 ar  
    67    34    67 1   
    68    35    36 ar  
    69    35    68 1   
    70    36    37 ar  
    71    36    41 1   
    72    37    38 ar  
    73    37    69 1   
    74    38    70 1   
    75    40    71 1   
@<TRIPOS>SUBSTRUCTURE
     1 7K6         1 TEMP              0 ****  ****    0 ROOT
