@<TRIPOS>MOLECULE
7K6
   71    75     1     0     0
SMALL
No Charge or Current Charge


@<TRIPOS>ATOM
      1 C01        -15.1150     5.3970    49.5500 ce         1 7K6      -0.074400
      2 C02        -15.4080     6.7580    50.2030 c5         1 7K6       0.177500
      3 C03        -15.4190     6.4660    51.7380 c5         1 7K6      -0.065400
      4 C04        -18.8820    -1.0690    47.7750 c3         1 7K6       0.157600
      5 C05        -18.8560    -2.5980    47.5880 c3         1 7K6      -0.082400
      6 C06        -20.1950    -3.1600    47.0610 c3         1 7K6      -0.075400
      7 C07        -20.1710    -4.6950    46.8710 c3         1 7K6      -0.070400
      8 C08        -21.5210    -5.3090    46.4260 c3         1 7K6      -0.060400
      9 C09        -21.9990    -4.8700    45.0170 c3         1 7K6      -0.200400
     10 C10        -19.5890     4.4210    52.4610 ca         1 7K6       0.116100
     11 C11        -19.1380     3.1070    52.2460 ca         1 7K6      -0.117500
     12 C12        -19.8040     2.2740    51.3300 ca         1 7K6      -0.065500
     13 C13        -20.9250     2.7570    50.6330 ca         1 7K6      -0.020900
     14 C14        -21.3830     4.0680    50.8510 ca         1 7K6      -0.065500
     15 C15        -20.7190     4.8990    51.7720 ca         1 7K6      -0.117500
     16 C16        -23.2670    -5.6480    44.6200 c          1 7K6       0.706000
     17 O04        -23.1320    -6.7190    44.0470 o          1 7K6      -0.743500
     18 O05        -24.3510    -5.1850    44.9390 o          1 7K6      -0.743500
     19 Br1        -21.8480     1.6170    49.4050 br         1 7K6      -0.073100
     20 S01        -18.0220     6.4700    52.9400 s6         1 7K6       1.346700
     21 O06        -18.8480     7.3780    52.1330 o          1 7K6      -0.524000
     22 O07        -17.3660     6.9850    54.1500 o          1 7K6      -0.524000
     23 C17        -16.7480     5.6120    51.8600 c5         1 7K6      -0.372700
     24 C18        -16.2800     4.6850    49.6380 cf         1 7K6      -0.057400
     25 C19        -17.2450     5.6300    50.3830 c5         1 7K6       0.219500
     26 O08        -16.8020     6.9100    49.9410 os         1 7K6      -0.415000
     27 C20        -13.8080     5.0370    48.9290 ca         1 7K6      -0.067800
     28 C21        -16.6280     3.3030    49.2690 ca         1 7K6      -0.103800
     29 C22        -12.6030     5.5170    49.4790 ca         1 7K6      -0.058000
     30 C23        -11.3700     5.1830    48.8910 ca         1 7K6      -0.172000
     31 C24        -11.3350     4.3720    47.7450 ca         1 7K6       0.137100
     32 C25        -12.5310     3.8990    47.1870 ca         1 7K6      -0.172000
     33 C26        -13.7640     4.2320    47.7740 ca         1 7K6      -0.058000
     34 C27        -17.8900     3.0130    48.7170 ca         1 7K6      -0.058000
     35 C28        -18.2270     1.6950    48.3640 ca         1 7K6      -0.179000
     36 C29        -17.3080     0.6480    48.5800 ca         1 7K6       0.161100
     37 C30        -16.0500     0.9370    49.1300 ca         1 7K6      -0.179000
     38 C31        -15.7080     2.2570    49.4700 ca         1 7K6      -0.058000
     39 O03        -18.9630     5.1940    53.4040 os         1 7K6      -0.454800
     40 O01        -10.1450     4.0440    47.1690 oh         1 7K6      -0.536100
     41 O02        -17.5960    -0.6670    48.2760 os         1 7K6      -0.354100
     42 H1         -14.8050     7.6120    49.8620 h1         1 7K6       0.102700
     43 H2         -14.5310     5.9100    52.0610 hc         1 7K6       0.068200
     44 H3         -15.4410     7.4000    52.3130 hc         1 7K6       0.068200
     45 H4         -19.0920    -0.5850    46.8120 h1         1 7K6       0.039700
     46 H5         -19.6750    -0.8000    48.4850 h1         1 7K6       0.039700
     47 H6         -18.6180    -3.0710    48.5490 hc         1 7K6       0.048200
     48 H7         -18.0530    -2.8600    46.8890 hc         1 7K6       0.048200
     49 H8         -20.4280    -2.6760    46.1050 hc         1 7K6       0.043700
     50 H9         -20.9980    -2.8950    47.7600 hc         1 7K6       0.043700
     51 H10        -19.3960    -4.9590    46.1400 hc         1 7K6       0.021700
     52 H11        -19.8780    -5.1620    47.8190 hc         1 7K6       0.021700
     53 H12        -22.2930    -5.0620    47.1660 hc         1 7K6       0.042200
     54 H13        -21.4190    -6.4020    46.4390 hc         1 7K6       0.042200
     55 H14        -21.1750    -5.1080    44.3320 hc         1 7K6       0.016700
     56 H15        -22.2200    -3.7990    45.0880 hc         1 7K6       0.016700
     57 H16        -18.2780     2.7320    52.7960 ha         1 7K6       0.143000
     58 H17        -19.4540     1.2580    51.1640 ha         1 7K6       0.142000
     59 H18        -22.2580     4.4350    50.3190 ha         1 7K6       0.142000
     60 H19        -21.0930     5.9030    51.9590 ha         1 7K6       0.143000
     61 H21        -16.5920     4.6090    52.2710 h1         1 7K6       0.112700
     62 H22        -18.3170     5.4610    50.2030 h1         1 7K6       0.111700
     63 H23        -12.6160     6.1430    50.3690 ha         1 7K6       0.120500
     64 H24        -10.4480     5.5570    49.3300 ha         1 7K6       0.123000
     65 H25        -12.5050     3.2760    46.2960 ha         1 7K6       0.123000
     66 H26        -14.6860     3.8690    47.3240 ha         1 7K6       0.120500
     67 H27        -18.6100     3.8100    48.5450 ha         1 7K6       0.116500
     68 H28        -19.2020     1.5080    47.9260 ha         1 7K6       0.131500
     69 H29        -15.3380     0.1330    49.2970 ha         1 7K6       0.131500
     70 H30        -14.7330     2.4650    49.9050 ha         1 7K6       0.116500
     71 H31         -9.4240     4.4600    47.6880 ho         1 7K6       0.461000
@<TRIPOS>BOND
     1     1     2 1   
     2     1    24 2   
     3     1    27 1   
     4     2     3 1   
     5     2    26 1   
     6     2    42 1   
     7     3    23 1   
     8     3    43 1   
     9     3    44 1   
    10     4     5 1   
    11     4    41 1   
    12     4    45 1   
    13     4    46 1   
    14     5     6 1   
    15     5    47 1   
    16     5    48 1   
    17     6     7 1   
    18     6    49 1   
    19     6    50 1   
    20     7     8 1   
    21     7    51 1   
    22     7    52 1   
    23     8     9 1   
    24     8    53 1   
    25     8    54 1   
    26     9    16 1   
    27     9    55 1   
    28     9    56 1   
    29    10    11 ar  
    30    10    15 ar  
    31    10    39 1   
    32    11    12 ar  
    33    11    57 1   
    34    12    13 ar  
    35    12    58 1   
    36    13    14 ar  
    37    13    19 1   
    38    14    15 ar  
    39    14    59 1   
    40    15    60 1   
    41    16    17 1   
    42    16    18 1   
    43    20    21 2   
    44    20    22 2   
    45    20    23 1   
    46    20    39 1   
    47    23    25 1   
    48    23    61 1   
    49    24    25 1   
    50    24    28 1   
    51    25    26 1   
    52    25    62 1   
    53    27    29 ar  
    54    27    33 ar  
    55    28    34 ar  
    56    28    38 ar  
    57    29    30 ar  
    58    29    63 1   
    59    30    31 ar  
    60    30    64 1   
    61    31    32 ar  
    62    31    40 1   
    63    32    33 ar  
    64    32    65 1   
    65    33    66 1   
    66    34    35 ar  
    67    34    67 1   
    68    35    36 ar  
    69    35    68 1   
    70    36    37 ar  
    71    36    41 1   
    72    37    38 ar  
    73    37    69 1   
    74    38    70 1   
    75    40    71 1   
@<TRIPOS>SUBSTRUCTURE
     1 7K6         1 TEMP              0 ****  ****    0 ROOT
