@<TRIPOS>MOLECULE
7K7
   41    43     1     0     0
SMALL
No Charge or Current Charge


@<TRIPOS>ATOM
      1 C2           4.4090     0.3700    -0.0090 c3         1 7K7       0.104600
      2 O1           0.2880     0.9840    -2.2180 o          1 7K7      -0.542500
      3 C9          -3.3300    -1.9100     0.3280 ca         1 7K7       0.006000
      4 C10         -2.2990    -2.7090    -0.1850 ca         1 7K7      -0.149000
      5 C4           1.3410     0.0080     1.3910 c3         1 7K7       0.223500
      6 C3           2.7150    -0.6730     1.6520 c3         1 7K7       0.072600
      7 C8          -3.1740    -0.5140     0.3750 ca         1 7K7      -0.129000
      8 C7          -1.9880     0.0960    -0.0930 ca         1 7K7       0.075000
      9 C6          -0.9460    -0.7180    -0.6150 ca         1 7K7      -0.289500
     10 C5           0.9230     0.8650     2.5990 c3         1 7K7      -0.100100
     11 O            1.5620    -1.1300    -1.5280 o          1 7K7      -0.542500
     12 N            1.2370     0.7770     0.1230 n3         1 7K7      -0.788500
     13 N1           3.5990    -0.8470     0.4080 ny         1 7K7      -0.823000
     14 C1           3.5580     1.3660    -0.8110 c3         1 7K7      -0.143400
     15 C            2.2480     1.8360    -0.1350 c3         1 7K7       0.206800
     16 C11         -1.1140    -2.1190    -0.6520 ca         1 7K7       0.028000
     17 C12         -4.2070     0.2900     0.8960 ca         1 7K7       0.385900
     18 N2          -4.1270     1.6370     0.9800 nb         1 7K7      -0.649000
     19 C13         -2.9940     2.2220     0.5390 ca         1 7K7       0.367900
     20 C14         -1.9160     1.5020     0.0030 ca         1 7K7      -0.183000
     21 H1           4.8070     0.8550     0.8870 hx         1 7K7       0.099200
     22 H2           5.2530     0.0480    -0.6280 hx         1 7K7       0.099200
     23 H4          -2.4170    -3.7890    -0.2200 ha         1 7K7       0.139000
     24 H5           0.6140    -0.8140     1.3680 h1         1 7K7       0.078700
     25 H6           3.2720    -0.0730     2.3780 hx         1 7K7       0.103200
     26 H7           2.5290    -1.6520     2.1050 hx         1 7K7       0.103200
     27 H8          -0.0610     1.3140     2.4230 hc         1 7K7       0.066367
     28 H9           0.8580     0.2490     3.5040 hc         1 7K7       0.066367
     29 H10          1.6420     1.6710     2.7850 hc         1 7K7       0.066367
     30 H11          2.9990    -1.1530    -0.3950 hn         1 7K7       0.516500
     31 H13          4.1740     2.2510    -1.0080 hc         1 7K7       0.101200
     32 H14          3.3360     0.9400    -1.7960 hc         1 7K7       0.101200
     33 H15          1.8030     2.6070    -0.7800 h1         1 7K7       0.091700
     34 H16          2.5100     2.3490     0.7990 h1         1 7K7       0.091700
     35 H17         -0.3310    -2.7650    -1.0460 ha         1 7K7       0.140000
     36 H18         -5.1300    -0.1580     1.2610 h4         1 7K7       0.034100
     37 H19         -2.9470     3.3080     0.6180 h4         1 7K7       0.032100
     38 H20         -1.0470     2.0630    -0.3190 ha         1 7K7       0.128000
     39 H12          4.2420    -1.6570     0.5470 hn         1 7K7       0.516500
     40 S            0.6140    -0.0490    -1.2310 sy         1 7K7       1.154600
     41 H3          -4.2450    -2.3770     0.6890 ha         1 7K7       0.136000
@<TRIPOS>BOND
     1     1    13 1   
     2     1    14 1   
     3     1    21 1   
     4     1    22 1   
     5     2    40 2   
     6     3     4 ar  
     7     3     7 ar  
     8     3    41 1   
     9     4    16 ar  
    10     4    23 1   
    11     5     6 1   
    12     5    10 1   
    13     5    12 1   
    14     5    24 1   
    15     6    13 1   
    16     6    25 1   
    17     6    26 1   
    18     7     8 ar  
    19     7    17 ar  
    20     8     9 ar  
    21     8    20 ar  
    22     9    16 ar  
    23     9    40 1   
    24    10    27 1   
    25    10    28 1   
    26    10    29 1   
    27    11    40 2   
    28    12    15 1   
    29    12    40 1   
    30    13    30 1   
    31    13    39 1   
    32    14    15 1   
    33    14    31 1   
    34    14    32 1   
    35    15    33 1   
    36    15    34 1   
    37    16    35 1   
    38    17    18 ar  
    39    17    36 1   
    40    18    19 ar  
    41    19    20 ar  
    42    19    37 1   
    43    20    38 1   
@<TRIPOS>SUBSTRUCTURE
     1 7K7         1 TEMP              0 ****  ****    0 ROOT
