@<TRIPOS>MOLECULE
7K7
   41    43     1     0     0
SMALL
bcc


@<TRIPOS>ATOM
      1 C2           4.3840     0.5720    -0.1090 c3         1 7K7       0.132800
      2 O1           0.4230     0.7730    -2.1790 o          1 7K7      -0.613300
      3 C9          -3.4270    -1.7300     0.3560 ca         1 7K7      -0.012000
      4 C10         -2.4660    -2.6000    -0.0750 ca         1 7K7      -0.167000
      5 C4           1.4830    -0.2750     1.3620 c3         1 7K7       0.223500
      6 C3           2.9650    -0.4760     1.6720 c3         1 7K7       0.100800
      7 C8          -3.1860    -0.3390     0.3490 ca         1 7K7      -0.194300
      8 C7          -1.9510     0.1820    -0.1060 ca         1 7K7       0.075000
      9 C6          -0.9730    -0.7600    -0.5350 ca         1 7K7      -0.289500
     10 C5           0.7900     0.3240     2.5760 c3         1 7K7      -0.100100
     11 O            1.3800    -1.4210    -1.4640 o          1 7K7      -0.613300
     12 N            1.2560     0.5400     0.1670 n3         1 7K7      -0.788500
     13 N1           3.8070    -0.6850     0.4600 ny         1 7K7      -0.769000
     14 C1           3.3710     1.4380    -0.8290 c3         1 7K7      -0.143400
     15 C            2.0830     1.7250    -0.0660 c3         1 7K7       0.206800
     16 C11         -1.2270    -2.1070    -0.5210 ca         1 7K7       0.010000
     17 C12         -4.1730     0.5690     0.7980 ca         1 7K7       0.451200
     18 N2          -4.0170     1.8630     0.8210 nb         1 7K7      -0.649000
     19 C13         -2.8400     2.3550     0.3820 ca         1 7K7       0.433200
     20 C14         -1.8070     1.5870    -0.0780 ca         1 7K7      -0.266300
     21 H1           4.8370     1.0980     0.7300 hx         1 7K7       0.099200
     22 H2           5.1780     0.2710    -0.7890 hx         1 7K7       0.099200
     23 H4          -2.6420    -3.6660    -0.0720 ha         1 7K7       0.157000
     24 H5           1.0540    -1.2630     1.1830 h1         1 7K7       0.078700
     25 H6           3.3870     0.3760     2.2030 hx         1 7K7       0.103200
     26 H7           3.0760    -1.3500     2.3100 hx         1 7K7       0.103200
     27 H8          -0.2860     0.3610     2.4170 hc         1 7K7       0.066367
     28 H9           0.9820    -0.2850     3.4600 hc         1 7K7       0.066367
     29 H10          1.1480     1.3340     2.7760 hc         1 7K7       0.066367
     30 H11          3.2900    -1.2010    -0.2590 hn         1 7K7       0.461300
     31 H13          3.8670     2.3880    -1.0340 hc         1 7K7       0.101200
     32 H14          3.1380     1.0080    -1.8040 hc         1 7K7       0.101200
     33 H15          1.5020     2.4710    -0.6060 h1         1 7K7       0.091700
     34 H16          2.2890     2.1630     0.9130 h1         1 7K7       0.091700
     35 H17         -0.4720    -2.8090    -0.8480 ha         1 7K7       0.158000
     36 H18         -5.1220     0.1730     1.1490 h4         1 7K7       0.034100
     37 H19         -2.7370     3.4330     0.4070 h4         1 7K7       0.032100
     38 H20         -0.9100     2.0810    -0.4150 ha         1 7K7       0.146000
     39 H12          4.5840    -1.2950     0.7130 hn         1 7K7       0.461300
     40 S            0.6030    -0.2260    -1.1390 sy         1 7K7       1.296200
     41 H3          -4.3820    -2.0950     0.7110 ha         1 7K7       0.154000
@<TRIPOS>BOND
     1     1    13 1   
     2     1    14 1   
     3     1    21 1   
     4     1    22 1   
     5     2    40 2   
     6     3     4 ar  
     7     3     7 ar  
     8     3    41 1   
     9     4    16 ar  
    10     4    23 1   
    11     5     6 1   
    12     5    10 1   
    13     5    12 1   
    14     5    24 1   
    15     6    13 1   
    16     6    25 1   
    17     6    26 1   
    18     7     8 ar  
    19     7    17 ar  
    20     8     9 ar  
    21     8    20 ar  
    22     9    16 ar  
    23     9    40 1   
    24    10    27 1   
    25    10    28 1   
    26    10    29 1   
    27    11    40 2   
    28    12    15 1   
    29    12    40 1   
    30    13    30 1   
    31    13    39 1   
    32    14    15 1   
    33    14    31 1   
    34    14    32 1   
    35    15    33 1   
    36    15    34 1   
    37    16    35 1   
    38    17    18 ar  
    39    17    36 1   
    40    18    19 ar  
    41    19    20 ar  
    42    19    37 1   
    43    20    38 1   
@<TRIPOS>SUBSTRUCTURE
     1 7K7         1 TEMP              0 ****  ****    0 ROOT
