@<TRIPOS>MOLECULE
7K9
   96    99     1     0     0
SMALL
bcc


@<TRIPOS>ATOM
      1 C29         -3.2320     1.7780     2.2660 c3         1 7K9       0.109000
      2 C30         -4.0270     1.5820     0.9790 c3         1 7K9      -0.125400
      3 C31         -5.5160     1.5160     1.2730 c3         1 7K9       0.099000
      4 N32         -6.2560     1.3060     0.0440 ns         1 7K9      -0.543900
      5 C33         -7.5340     0.9350     0.0180 c          1 7K9       0.698700
      6 O53         -8.1620     0.7310     1.0720 o          1 7K9      -0.654600
      7 C40         -8.2020     0.7640    -1.2970 ca         1 7K9      -0.232600
      8 C41         -7.5450     0.9220    -2.5250 ca         1 7K9      -0.103500
      9 C42         -8.2280     0.7600    -3.7100 ca         1 7K9      -0.148000
     10 C43         -9.5830     0.4340    -3.7020 ca         1 7K9      -0.114500
     11 C44        -10.2520     0.2670    -2.5060 ca         1 7K9       0.095100
     12 O51        -11.5610    -0.0530    -2.5120 oh         1 7K9      -0.494100
     13 C45         -9.5620     0.4290    -1.2910 ca         1 7K9       0.141600
     14 O50        -10.2740     0.2410    -0.1750 oh         1 7K9      -0.541600
     15 H1          -3.4220     0.9470     2.9480 h1         1 7K9       0.056450
     16 H4          -3.8230     2.4040     0.2890 hc         1 7K9       0.056200
     17 H6          -5.7260     0.6970     1.9630 h1         1 7K9       0.061450
     18 H8          -5.7900     1.5410    -0.8170 hn         1 7K9       0.320500
     19 H13         -9.6380     0.3720     0.5800 ho         1 7K9       0.496500
     20 N1          -1.7940     1.8480     2.0600 n          1 7K9      -0.471800
     21 C2          -1.2550     3.0160     1.6630 c          1 7K9       0.691700
     22 C3           0.2330     3.0570     1.4620 ca         1 7K9      -0.131600
     23 C4          -1.0230     0.6240     2.2150 c3         1 7K9       0.104000
     24 C5          -1.0970    -0.3180     1.0160 c3         1 7K9      -0.099400
     25 C6          -0.0110    -1.3800     1.0780 c3         1 7K9      -0.099400
     26 C7          -0.0390    -2.2840    -0.1510 c3         1 7K9       0.104000
     27 N2           1.0760    -3.2180    -0.2210 n          1 7K9      -0.471800
     28 C9           1.0330    -4.3320     0.5290 c          1 7K9       0.691700
     29 C10          2.1900    -5.2830     0.4310 ca         1 7K9      -0.131600
     30 C11          2.1860    -2.8600    -1.0860 c3         1 7K9       0.109000
     31 C12          2.9960    -1.6710    -0.5780 c3         1 7K9      -0.125400
     32 C13          4.2520    -1.4630    -1.4150 c3         1 7K9       0.099000
     33 N3           5.0070    -0.3260    -0.9360 ns         1 7K9      -0.543900
     34 C15          5.1670     0.8180    -1.6030 c          1 7K9       0.698700
     35 C16          5.8330     1.9460    -0.9040 ca         1 7K9      -0.232600
     36 C1           1.0850     3.3310     2.5270 ca         1 7K9      -0.113500
     37 C8           2.4490     3.4370     2.2990 ca         1 7K9      -0.114000
     38 C14          2.9670     3.2890     1.0220 ca         1 7K9      -0.157000
     39 C17          2.1190     3.0280    -0.0480 ca         1 7K9       0.079600
     40 C18          0.7430     2.9100     0.1800 ca         1 7K9       0.085600
     41 C19          6.3480     1.8600     0.3960 ca         1 7K9      -0.103500
     42 C20          6.9070     2.9630     1.0040 ca         1 7K9      -0.148000
     43 C21          6.9650     4.1820     0.3310 ca         1 7K9      -0.114500
     44 C22          6.4730     4.2910    -0.9530 ca         1 7K9       0.095100
     45 C23          5.9060     3.1680    -1.5840 ca         1 7K9       0.141600
     46 O1          -1.9150     4.0310     1.4890 o          1 7K9      -0.579600
     47 O3           4.7780     0.9500    -2.7750 o          1 7K9      -0.654600
     48 O2           0.0860    -4.6090     1.2550 o          1 7K9      -0.579600
     49 C24          2.1350    -6.3620    -0.4480 ca         1 7K9      -0.113500
     50 C25          3.1730    -7.2750    -0.4860 ca         1 7K9      -0.114000
     51 C26          4.2660    -7.1230     0.3600 ca         1 7K9      -0.157000
     52 C27          4.3200    -6.0590     1.2450 ca         1 7K9       0.079600
     53 C28          3.2700    -5.1320     1.2880 ca         1 7K9       0.085600
     54 O4          -0.1060     2.7230    -0.8780 oh         1 7K9      -0.503600
     55 O5           2.6470     2.9040    -1.2760 oh         1 7K9      -0.503100
     56 O6           5.4600     3.3500    -2.8290 oh         1 7K9      -0.541600
     57 O7           6.5400     5.4750    -1.5950 oh         1 7K9      -0.494100
     58 H12          0.0180     0.8830     2.4020 h1         1 7K9       0.054200
     59 H14         -1.3760     0.1150     3.1130 h1         1 7K9       0.054200
     60 H15         -2.0830    -0.7880     0.9580 hc         1 7K9       0.049450
     61 H16         -0.9870     0.2670     0.0980 hc         1 7K9       0.049450
     62 H17          0.9630    -0.8890     1.1510 hc         1 7K9       0.049450
     63 H18         -0.1230    -1.9850     1.9800 hc         1 7K9       0.049450
     64 H19         -0.9780    -2.8380    -0.1810 h1         1 7K9       0.054200
     65 H20         -0.0070    -1.6770    -1.0590 h1         1 7K9       0.054200
     66 H21          2.8390    -3.7230    -1.2040 h1         1 7K9       0.056450
     67 H22          1.7880    -2.6350    -2.0790 h1         1 7K9       0.056450
     68 H23          2.3970    -0.7570    -0.6110 hc         1 7K9       0.056200
     69 H24          3.2720    -1.8430     0.4650 hc         1 7K9       0.056200
     70 H25          4.8840    -2.3530    -1.3700 h1         1 7K9       0.061450
     71 H26          3.9990    -1.2990    -2.4610 h1         1 7K9       0.061450
     72 H27          5.3220    -0.3810     0.0180 hn         1 7K9       0.320500
     73 H28          0.6850     3.4490     3.5260 ha         1 7K9       0.145500
     74 H29          3.1180     3.6460     3.1240 ha         1 7K9       0.140000
     75 H30          4.0320     3.3790     0.8440 ha         1 7K9       0.146000
     76 H31          6.3200     0.9330     0.9540 ha         1 7K9       0.122000
     77 H32          7.3000     2.8850     2.0080 ha         1 7K9       0.137000
     78 H33          7.4000     5.0530     0.8070 ha         1 7K9       0.150500
     79 H34          1.2850    -6.4720    -1.1100 ha         1 7K9       0.145500
     80 H35          3.1400    -8.1110    -1.1720 ha         1 7K9       0.140000
     81 H36          5.0820    -7.8370     0.3310 ha         1 7K9       0.146000
     82 H39         -0.0740     1.8130    -1.1950 ho         1 7K9       0.428000
     83 H40          1.9510     2.8600    -1.9430 ho         1 7K9       0.439000
     84 H41          5.0850     2.4700    -3.1100 ho         1 7K9       0.496500
     85 H42          6.1690     5.3930    -2.4820 ho         1 7K9       0.447500
     86 O8           3.2780    -4.0830     2.1360 oh         1 7K9      -0.503600
     87 H38          4.0990    -4.0610     2.6420 ho         1 7K9       0.428000
     88 O9           5.3400    -5.8340     2.1020 oh         1 7K9      -0.503100
     89 H2          -3.5640     2.6850     2.7720 h1         1 7K9       0.056450
     90 H3          -3.7170     0.6580     0.4860 hc         1 7K9       0.056200
     91 H9          -5.8470     2.4400     1.7590 h1         1 7K9       0.061450
     92 H5          -6.4900     1.1610    -2.5710 ha         1 7K9       0.122000
     93 H7          -7.7130     0.8840    -4.6530 ha         1 7K9       0.137000
     94 H10        -10.1210     0.3010    -4.6320 ha         1 7K9       0.150500
     95 H11        -11.8790    -0.1700    -1.6090 ho         1 7K9       0.447500
     96 H37          6.0220    -6.5080     2.0090 ho         1 7K9       0.439000
@<TRIPOS>BOND
     1     1     2 1   
     2     1    15 1   
     3     1    20 1   
     4     1    89 1   
     5     2     3 1   
     6     2    16 1   
     7     2    90 1   
     8     3     4 1   
     9     3    17 1   
    10     3    91 1   
    11     4     5 1   
    12     4    18 1   
    13     5     6 2   
    14     5     7 1   
    15     7     8 ar  
    16     7    13 ar  
    17     8     9 ar  
    18     8    92 1   
    19     9    10 ar  
    20     9    93 1   
    21    10    11 ar  
    22    10    94 1   
    23    11    12 1   
    24    11    13 ar  
    25    12    95 1   
    26    13    14 1   
    27    14    19 1   
    28    20    21 1   
    29    20    23 1   
    30    21    22 1   
    31    21    46 2   
    32    22    36 ar  
    33    22    40 ar  
    34    23    24 1   
    35    23    58 1   
    36    23    59 1   
    37    24    25 1   
    38    24    60 1   
    39    24    61 1   
    40    25    26 1   
    41    25    62 1   
    42    25    63 1   
    43    26    27 1   
    44    26    64 1   
    45    26    65 1   
    46    27    28 1   
    47    27    30 1   
    48    28    29 1   
    49    28    48 2   
    50    29    49 ar  
    51    29    53 ar  
    52    30    31 1   
    53    30    66 1   
    54    30    67 1   
    55    31    32 1   
    56    31    68 1   
    57    31    69 1   
    58    32    33 1   
    59    32    70 1   
    60    32    71 1   
    61    33    34 1   
    62    33    72 1   
    63    34    35 1   
    64    34    47 2   
    65    35    41 ar  
    66    35    45 ar  
    67    36    37 ar  
    68    36    73 1   
    69    37    38 ar  
    70    37    74 1   
    71    38    39 ar  
    72    38    75 1   
    73    39    40 ar  
    74    39    55 1   
    75    40    54 1   
    76    41    42 ar  
    77    41    76 1   
    78    42    43 ar  
    79    42    77 1   
    80    43    44 ar  
    81    43    78 1   
    82    44    45 ar  
    83    44    57 1   
    84    45    56 1   
    85    49    50 ar  
    86    49    79 1   
    87    50    51 ar  
    88    50    80 1   
    89    51    52 ar  
    90    51    81 1   
    91    52    53 ar  
    92    52    88 1   
    93    53    86 1   
    94    54    82 1   
    95    55    83 1   
    96    56    84 1   
    97    57    85 1   
    98    86    87 1   
    99    88    96 1   
@<TRIPOS>SUBSTRUCTURE
     1 7K9         1 TEMP              0 ****  ****    0 ROOT
