@<TRIPOS>MOLECULE
7K9
   96    99     1     0     0
SMALL
No Charge or Current Charge


@<TRIPOS>ATOM
      1 C29         -3.2430     1.8960     2.1640 c3         1 7K9       0.109000
      2 C30         -4.1400     1.4370     0.9980 c3         1 7K9      -0.125400
      3 C31         -5.6310     1.3970     1.3800 c3         1 7K9       0.099000
      4 N32         -6.4590     0.9550     0.2590 ns         1 7K9      -0.476900
      5 C33         -7.8220     0.7910     0.3200 c          1 7K9       0.631700
      6 O53         -8.4430     1.0130     1.3540 o          1 7K9      -0.654600
      7 C40         -8.5190     0.3240    -0.9410 ca         1 7K9      -0.232600
      8 C41         -7.7990     0.0660    -2.1360 ca         1 7K9      -0.085500
      9 C42         -8.4620    -0.3660    -3.2980 ca         1 7K9      -0.130000
     10 C43         -9.8530    -0.5500    -3.2940 ca         1 7K9      -0.096500
     11 C44        -10.5830    -0.3010    -2.1240 ca         1 7K9       0.095100
     12 O51        -11.9380    -0.4770    -2.1110 oh         1 7K9      -0.533100
     13 C45         -9.9230     0.1340    -0.9530 ca         1 7K9       0.141600
     14 O50        -10.6620     0.3690     0.1740 oh         1 7K9      -0.580600
     15 H1          -3.3270     1.1720     2.9850 h1         1 7K9       0.056450
     16 H4          -4.0030     2.1190     0.1500 hc         1 7K9       0.056200
     17 H6          -5.7780     0.7080     2.2230 h1         1 7K9       0.061450
     18 H8          -6.0130     0.7550    -0.6260 hn         1 7K9       0.320500
     19 H13        -10.0040     0.6620     0.8660 ho         1 7K9       0.535500
     20 N1          -1.8150     2.0410     1.7870 n          1 7K9      -0.404800
     21 C2          -1.3000     3.3080     1.4090 c          1 7K9       0.624700
     22 C3           0.1780     3.4360     1.1490 ca         1 7K9      -0.131600
     23 C4          -0.9520     0.8380     1.9020 c3         1 7K9       0.104000
     24 C5          -0.7260     0.1090     0.5620 c3         1 7K9      -0.099400
     25 C6           0.1960    -1.1200     0.7070 c3         1 7K9      -0.099400
     26 C7           0.4350    -1.8600    -0.6240 c3         1 7K9       0.104000
     27 N2           1.3480    -3.0240    -0.4680 n          1 7K9      -0.404800
     28 C9           0.7940    -4.3270    -0.3450 c          1 7K9       0.624700
     29 C10          1.7000    -5.4850     0.0060 ca         1 7K9      -0.131600
     30 C11          2.7360    -2.8620    -0.9880 c3         1 7K9       0.109000
     31 C12          3.4680    -1.5820    -0.5230 c3         1 7K9      -0.125400
     32 C13          4.9430    -1.5490    -0.9660 c3         1 7K9       0.099000
     33 N3           5.5930    -0.2990    -0.5690 ns         1 7K9      -0.476900
     34 C15          5.4980     0.8840    -1.2630 c          1 7K9       0.631700
     35 C16          6.1620     2.1000    -0.6510 ca         1 7K9      -0.232600
     36 C1           1.0980     3.3680     2.2180 ca         1 7K9      -0.095500
     37 C8           2.4760     3.5150     1.9830 ca         1 7K9      -0.096000
     38 C14          2.9490     3.7480     0.6810 ca         1 7K9      -0.139000
     39 C17          2.0420     3.8320    -0.3880 ca         1 7K9       0.079600
     40 C18          0.6590     3.6810    -0.1540 ca         1 7K9       0.085600
     41 C19          6.9070     2.0150     0.5530 ca         1 7K9      -0.085500
     42 C20          7.5150     3.1560     1.1050 ca         1 7K9      -0.130000
     43 C21          7.3980     4.4010     0.4690 ca         1 7K9      -0.096500
     44 C22          6.6660     4.5050    -0.7220 ca         1 7K9       0.095100
     45 C23          6.0480     3.3650    -1.2770 ca         1 7K9       0.141600
     46 O1          -2.0290     4.2910     1.3270 o          1 7K9      -0.579600
     47 O3           4.9050     0.9520    -2.3330 o          1 7K9      -0.654600
     48 O2          -0.4130    -4.5180    -0.4530 o          1 7K9      -0.579600
     49 C24          1.5770    -6.6860    -0.7280 ca         1 7K9      -0.095500
     50 C25          2.3890    -7.7940    -0.4340 ca         1 7K9      -0.096000
     51 C26          3.3250    -7.7250     0.6110 ca         1 7K9      -0.139000
     52 C27          3.4370    -6.5500     1.3710 ca         1 7K9       0.079600
     53 C28          2.6230    -5.4350     1.0780 ca         1 7K9       0.085600
     54 O4          -0.1980     3.7550    -1.2160 oh         1 7K9      -0.542600
     55 O5           2.4920     4.0680    -1.6610 oh         1 7K9      -0.542100
     56 O6           5.3110     3.5000    -2.4210 oh         1 7K9      -0.580600
     57 O7           6.5510     5.7150    -1.3480 oh         1 7K9      -0.533100
     58 H12          0.0160     1.1020     2.3410 h1         1 7K9       0.054200
     59 H14         -1.4200     0.1330     2.6020 h1         1 7K9       0.054200
     60 H15         -1.6890    -0.2110     0.1490 hc         1 7K9       0.049450
     61 H16         -0.2840     0.8070    -0.1590 hc         1 7K9       0.049450
     62 H17          1.1590    -0.7980     1.1210 hc         1 7K9       0.049450
     63 H18         -0.2430    -1.8200     1.4280 hc         1 7K9       0.049450
     64 H19         -0.5320    -2.1840    -1.0310 h1         1 7K9       0.054200
     65 H20          0.8500    -1.1600    -1.3600 h1         1 7K9       0.054200
     66 H21          3.3520    -3.7230    -0.7050 h1         1 7K9       0.056450
     67 H22          2.6890    -2.8590    -2.0850 h1         1 7K9       0.056450
     68 H23          2.9610    -0.6940    -0.9170 hc         1 7K9       0.056200
     69 H24          3.4280    -1.5240     0.5710 hc         1 7K9       0.056200
     70 H25          5.4840    -2.3890    -0.5100 h1         1 7K9       0.061450
     71 H26          5.0070    -1.6580    -2.0570 h1         1 7K9       0.061450
     72 H27          6.1040    -0.2760     0.3040 hn         1 7K9       0.320500
     73 H28          0.7410     3.2050     3.2330 ha         1 7K9       0.127500
     74 H29          3.1770     3.4580     2.8140 ha         1 7K9       0.122000
     75 H30          4.0150     3.8710     0.5170 ha         1 7K9       0.128000
     76 H31          7.0290     1.0700     1.0780 ha         1 7K9       0.104000
     77 H32          8.0830     3.0720     2.0300 ha         1 7K9       0.119000
     78 H33          7.8720     5.2810     0.8970 ha         1 7K9       0.132500
     79 H34          0.8550    -6.7550    -1.5400 ha         1 7K9       0.127500
     80 H35          2.2920    -8.7080    -1.0170 ha         1 7K9       0.122000
     81 H36          3.9480    -8.5900     0.8310 ha         1 7K9       0.128000
     82 H39          0.3630     3.9320    -2.0050 ho         1 7K9       0.467000
     83 H40          3.4760     4.0690    -1.6620 ho         1 7K9       0.478000
     84 H41          5.0590     2.5680    -2.6860 ho         1 7K9       0.535500
     85 H42          6.0530     5.5510    -2.1810 ho         1 7K9       0.486500
     86 O8           2.7230    -4.3350     1.8830 oh         1 7K9      -0.542600
     87 H38          3.4060    -4.5540     2.5560 ho         1 7K9       0.467000
     88 O9           4.3280    -6.4870     2.4110 oh         1 7K9      -0.542100
     89 H2          -3.6180     2.8520     2.5530 h1         1 7K9       0.056450
     90 H3          -3.8300     0.4390     0.6700 hc         1 7K9       0.056200
     91 H9          -5.9600     2.3980     1.6910 h1         1 7K9       0.061450
     92 H5          -6.7200     0.1950    -2.1870 ha         1 7K9       0.104000
     93 H7          -7.8940    -0.5590    -4.2060 ha         1 7K9       0.119000
     94 H10        -10.3640    -0.8850    -4.1940 ha         1 7K9       0.132500
     95 H11        -12.2350    -0.2470    -1.2010 ho         1 7K9       0.486500
     96 H37          4.8020    -7.3450     2.4760 ho         1 7K9       0.478000
@<TRIPOS>BOND
     1     1     2 1   
     2     1    15 1   
     3     1    20 1   
     4     1    89 1   
     5     2     3 1   
     6     2    16 1   
     7     2    90 1   
     8     3     4 1   
     9     3    17 1   
    10     3    91 1   
    11     4     5 1   
    12     4    18 1   
    13     5     6 2   
    14     5     7 1   
    15     7     8 ar  
    16     7    13 ar  
    17     8     9 ar  
    18     8    92 1   
    19     9    10 ar  
    20     9    93 1   
    21    10    11 ar  
    22    10    94 1   
    23    11    12 1   
    24    11    13 ar  
    25    12    95 1   
    26    13    14 1   
    27    14    19 1   
    28    20    21 1   
    29    20    23 1   
    30    21    22 1   
    31    21    46 2   
    32    22    36 ar  
    33    22    40 ar  
    34    23    24 1   
    35    23    58 1   
    36    23    59 1   
    37    24    25 1   
    38    24    60 1   
    39    24    61 1   
    40    25    26 1   
    41    25    62 1   
    42    25    63 1   
    43    26    27 1   
    44    26    64 1   
    45    26    65 1   
    46    27    28 1   
    47    27    30 1   
    48    28    29 1   
    49    28    48 2   
    50    29    49 ar  
    51    29    53 ar  
    52    30    31 1   
    53    30    66 1   
    54    30    67 1   
    55    31    32 1   
    56    31    68 1   
    57    31    69 1   
    58    32    33 1   
    59    32    70 1   
    60    32    71 1   
    61    33    34 1   
    62    33    72 1   
    63    34    35 1   
    64    34    47 2   
    65    35    41 ar  
    66    35    45 ar  
    67    36    37 ar  
    68    36    73 1   
    69    37    38 ar  
    70    37    74 1   
    71    38    39 ar  
    72    38    75 1   
    73    39    40 ar  
    74    39    55 1   
    75    40    54 1   
    76    41    42 ar  
    77    41    76 1   
    78    42    43 ar  
    79    42    77 1   
    80    43    44 ar  
    81    43    78 1   
    82    44    45 ar  
    83    44    57 1   
    84    45    56 1   
    85    49    50 ar  
    86    49    79 1   
    87    50    51 ar  
    88    50    80 1   
    89    51    52 ar  
    90    51    81 1   
    91    52    53 ar  
    92    52    88 1   
    93    53    86 1   
    94    54    82 1   
    95    55    83 1   
    96    56    84 1   
    97    57    85 1   
    98    86    87 1   
    99    88    96 1   
@<TRIPOS>SUBSTRUCTURE
     1 7K9         1 TEMP              0 ****  ****    0 ROOT
