@<TRIPOS>MOLECULE
7KA
   44    47     1     0     0
SMALL
No Charge or Current Charge


@<TRIPOS>ATOM
      1 N1          -2.2250    -2.3170    -0.0610 na         1 7KA       0.316400
      2 N2          -1.0350    -1.7010    -0.3490 n2         1 7KA      -0.587100
      3 C3          -1.0260    -0.3780    -0.3130 cc         1 7KA       0.458900
      4 N4          -2.1660     0.4140    -0.0010 n          1 7KA      -0.273500
      5 C5          -3.4100    -0.1710     0.2860 c          1 7KA       0.615600
      6 C6          -3.3420    -1.6090     0.2300 cc         1 7KA      -0.300600
      7 C7          -4.3220    -2.5450     0.4450 cd         1 7KA      -0.075000
      8 C8          -3.7400    -3.8310     0.2660 cd         1 7KA      -0.200000
      9 C9          -2.4090    -3.6880    -0.0580 cc         1 7KA      -0.126000
     10 O10         -4.4230     0.4620     0.5550 o          1 7KA      -0.494000
     11 C11         -2.0500     1.8420     0.0160 ca         1 7KA       0.022600
     12 C12         -2.6120     2.6070    -1.0240 ca         1 7KA      -0.092500
     13 C13         -2.5950     4.0110    -0.9590 ca         1 7KA      -0.102500
     14 C14         -2.0530     4.6560     0.1650 ca         1 7KA      -0.096000
     15 C15         -1.5490     3.8960     1.2340 ca         1 7KA      -0.102500
     16 C16         -1.5670     2.4920     1.1680 ca         1 7KA      -0.092500
     17 C17          0.3140     0.3120    -0.6690 c3         1 7KA       0.213200
     18 N19          1.5040    -0.5170    -0.3200 nu         1 7KA      -0.915100
     19 C20          2.8170    -0.1060    -0.1090 ca         1 7KA       0.454900
     20 N21          3.0370     1.2190    -0.1160 nb         1 7KA      -0.313000
     21 C22          4.3040     1.6210     0.0940 ca         1 7KA       0.226900
     22 N23          5.3680     0.8260     0.3100 nb         1 7KA      -0.304000
     23 C24          5.1300    -0.4890     0.3160 ca         1 7KA       0.455900
     24 C25          3.8530    -1.0250     0.1100 ca         1 7KA      -0.307000
     25 C26          3.6170    -2.4370     0.1230 cg         1 7KA       0.344000
     26 N27          3.4120    -3.5850     0.1270 n1         1 7KA      -0.484000
     27 N28          6.2320    -1.2500     0.5390 nv         1 7KA      -1.065900
     28 C29          0.3870     0.6710    -2.1700 c3         1 7KA      -0.112100
     29 H1          -5.3580    -2.3400     0.7040 ha         1 7KA       0.150000
     30 H2          -4.2630    -4.7780     0.3660 ha         1 7KA       0.143000
     31 H3          -1.6220    -4.3990    -0.2730 h4         1 7KA       0.166000
     32 H4          -3.0520     2.1120    -1.8870 ha         1 7KA       0.125500
     33 H5          -3.0100     4.5980    -1.7760 ha         1 7KA       0.120500
     34 H6          -2.0430     5.7430     0.2170 ha         1 7KA       0.118000
     35 H7          -1.1530     4.3940     2.1170 ha         1 7KA       0.120500
     36 H8          -1.1970     1.9080     2.0080 ha         1 7KA       0.125500
     37 H9           0.3700     1.2450    -0.0940 h1         1 7KA       0.110700
     38 H10          1.3330    -1.5230    -0.2480 hn         1 7KA       0.527000
     39 H11          4.4860     2.6940     0.0880 h5         1 7KA       0.046100
     40 H12          6.2000    -2.2420     0.3180 hn         1 7KA       0.507500
     41 H13          7.1440    -0.8020     0.4790 hn         1 7KA       0.507500
     42 H14          1.3120     1.2110    -2.4010 hc         1 7KA       0.055700
     43 H15          0.3520    -0.2340    -2.7870 hc         1 7KA       0.055700
     44 H16         -0.4550     1.3110    -2.4570 hc         1 7KA       0.055700
@<TRIPOS>BOND
     1     1     2 1   
     2     1     6 1   
     3     1     9 1   
     4     2     3 2   
     5     3     4 1   
     6     3    17 1   
     7     4     5 1   
     8     4    11 1   
     9     5     6 1   
    10     5    10 2   
    11     6     7 2   
    12     7     8 1   
    13     7    29 1   
    14     8     9 2   
    15     8    30 1   
    16     9    31 1   
    17    11    12 ar  
    18    11    16 ar  
    19    12    13 ar  
    20    12    32 1   
    21    13    14 ar  
    22    13    33 1   
    23    14    15 ar  
    24    14    34 1   
    25    15    16 ar  
    26    15    35 1   
    27    16    36 1   
    28    17    18 1   
    29    17    28 1   
    30    17    37 1   
    31    18    19 1   
    32    18    38 1   
    33    19    20 ar  
    34    19    24 ar  
    35    20    21 ar  
    36    21    22 ar  
    37    21    39 1   
    38    22    23 ar  
    39    23    24 ar  
    40    23    27 1   
    41    24    25 1   
    42    25    26 3   
    43    27    40 1   
    44    27    41 1   
    45    28    42 1   
    46    28    43 1   
    47    28    44 1   
@<TRIPOS>SUBSTRUCTURE
     1 7KA         1 TEMP              0 ****  ****    0 ROOT
