@<TRIPOS>MOLECULE
7KA
   44    47     1     0     0
SMALL
bcc


@<TRIPOS>ATOM
      1 N1          -2.1270    -2.2590    -0.0450 na         1 7KA       0.215000
      2 N2          -0.9690    -1.6470    -0.3530 n2         1 7KA      -0.587100
      3 C3          -0.9740    -0.3690    -0.3410 cc         1 7KA       0.458900
      4 N4          -2.0790     0.4000    -0.0420 n          1 7KA      -0.340500
      5 C5          -3.3170    -0.1780     0.2740 c          1 7KA       0.758100
      6 C6          -3.3010    -1.6100     0.2540 cc         1 7KA      -0.249900
      7 C7          -4.2580    -2.5710     0.5030 cd         1 7KA      -0.093000
      8 C8          -3.6310    -3.8180     0.3450 cd         1 7KA      -0.218000
      9 C9          -2.3110    -3.5940     0.0050 cc         1 7KA      -0.093300
     10 O10         -4.2820     0.5070     0.5410 o          1 7KA      -0.569500
     11 C11         -2.0030     1.8280     0.0340 ca         1 7KA       0.022600
     12 C12         -2.4640     2.5960    -1.0240 ca         1 7KA      -0.110500
     13 C13         -2.4050     3.9800    -0.9370 ca         1 7KA      -0.120500
     14 C14         -1.8900     4.5860     0.2020 ca         1 7KA      -0.114000
     15 C15         -1.4370     3.8080     1.2580 ca         1 7KA      -0.120500
     16 C16         -1.5000     2.4240     1.1810 ca         1 7KA      -0.110500
     17 C17          0.3070     0.3160    -0.7630 c3         1 7KA       0.213200
     18 N19          1.4160    -0.5520    -0.4450 nu         1 7KA      -0.859900
     19 C20          2.6460    -0.1020    -0.1800 ca         1 7KA       0.783200
     20 N21          2.8420     1.2190    -0.1330 nb         1 7KA      -0.839000
     21 C22          4.0670     1.6250     0.1470 ca         1 7KA       0.752900
     22 N23          5.1390     0.8970     0.3830 nb         1 7KA      -0.830000
     23 C24          4.9800    -0.4340     0.3400 ca         1 7KA       0.784200
     24 C25          3.7170    -0.9950     0.0550 ca         1 7KA      -0.437600
     25 C26          3.5280    -2.3890     0.0110 cg         1 7KA       0.254800
     26 N27          3.3690    -3.5340    -0.0270 n1         1 7KA      -0.394800
     27 N28          6.0530    -1.1830     0.5770 nv         1 7KA      -0.955500
     28 C29          0.2610     0.6490    -2.2560 c3         1 7KA      -0.112100
     29 H1          -5.2870    -2.3850     0.7680 ha         1 7KA       0.168000
     30 H2          -4.0850    -4.7880     0.4660 ha         1 7KA       0.161000
     31 H3          -1.5030    -4.2750    -0.2040 h4         1 7KA       0.184000
     32 H4          -2.8640     2.1180    -1.9080 ha         1 7KA       0.143500
     33 H5          -2.7620     4.5820    -1.7620 ha         1 7KA       0.138500
     34 H6          -1.8430     5.6650     0.2660 ha         1 7KA       0.136000
     35 H7          -1.0370     4.2750     2.1480 ha         1 7KA       0.138500
     36 H8          -1.1520     1.8120     2.0040 ha         1 7KA       0.143500
     37 H9           0.4390     1.2370    -0.1990 h1         1 7KA       0.110700
     38 H10          1.2590    -1.5440    -0.5490 hn         1 7KA       0.471800
     39 H11          4.2080     2.7000     0.1840 h5         1 7KA       0.046100
     40 H12          6.0330    -2.1880     0.5530 hn         1 7KA       0.452300
     41 H13          6.9350    -0.7370     0.7650 hn         1 7KA       0.452300
     42 H14          1.1880     1.1420    -2.5440 hc         1 7KA       0.055700
     43 H15          0.1500    -0.2600    -2.8470 hc         1 7KA       0.055700
     44 H16         -0.5610     1.3210    -2.4940 hc         1 7KA       0.055700
@<TRIPOS>BOND
     1     1     2 1   
     2     1     6 1   
     3     1     9 1   
     4     2     3 2   
     5     3     4 1   
     6     3    17 1   
     7     4     5 1   
     8     4    11 1   
     9     5     6 1   
    10     5    10 2   
    11     6     7 2   
    12     7     8 1   
    13     7    29 1   
    14     8     9 2   
    15     8    30 1   
    16     9    31 1   
    17    11    12 ar  
    18    11    16 ar  
    19    12    13 ar  
    20    12    32 1   
    21    13    14 ar  
    22    13    33 1   
    23    14    15 ar  
    24    14    34 1   
    25    15    16 ar  
    26    15    35 1   
    27    16    36 1   
    28    17    18 1   
    29    17    28 1   
    30    17    37 1   
    31    18    19 1   
    32    18    38 1   
    33    19    20 ar  
    34    19    24 ar  
    35    20    21 ar  
    36    21    22 ar  
    37    21    39 1   
    38    22    23 ar  
    39    23    24 ar  
    40    23    27 1   
    41    24    25 1   
    42    25    26 3   
    43    27    40 1   
    44    27    41 1   
    45    28    42 1   
    46    28    43 1   
    47    28    44 1   
@<TRIPOS>SUBSTRUCTURE
     1 7KA         1 TEMP              0 ****  ****    0 ROOT
