@<TRIPOS>MOLECULE
7KB
   40    42     1     0     0
SMALL
No Charge or Current Charge


@<TRIPOS>ATOM
      1 C2         -16.8270    26.7750   -24.6380 ca         1 7KB       0.326900
      2 O1         -14.7280    24.3540   -28.9500 o          1 7KB      -0.544000
      3 C9         -16.8260    22.6590   -24.3270 ca         1 7KB      -0.030000
      4 C10        -12.1700    22.9700   -29.0090 c3         1 7KB       0.231800
      5 C4         -16.7350    24.0530   -24.4740 ca         1 7KB      -0.119000
      6 C3         -17.3860    24.8530   -23.5200 ca         1 7KB       0.353900
      7 C8         -16.2260    21.8190   -25.2640 ca         1 7KB      -0.140000
      8 C7         -15.4670    22.3670   -26.3000 ca         1 7KB      -0.027000
      9 C6         -15.2920    23.7680   -26.4300 ca         1 7KB      -0.251500
     10 C5         -16.0240    24.6490   -25.5560 ca         1 7KB       0.090000
     11 S          -14.0450    24.2870   -27.6530 sy         1 7KB       1.209600
     12 O          -13.2430    25.4070   -27.1530 o          1 7KB      -0.544000
     13 N1         -12.9750    22.9610   -27.7650 n3         1 7KB      -0.814500
     14 C14        -12.2410    22.6510   -26.5030 c3         1 7KB       0.195800
     15 C13        -10.8100    23.2480   -26.3500 c3         1 7KB       0.146800
     16 N2          -9.7710    22.3890   -26.9920 n7         1 7KB      -0.855400
     17 C12         -9.7210    22.3700   -28.4690 c3         1 7KB       0.164800
     18 C11        -11.0530    21.9080   -29.1030 c3         1 7KB      -0.119400
     19 C1         -16.1520    26.0760   -25.6630 ca         1 7KB      -0.106300
     20 C          -15.7560    26.9420   -26.8630 c3         1 7KB      -0.081800
     21 N          -17.4190    26.1940   -23.5790 nb         1 7KB      -0.652000
     22 H1         -16.9310    27.8590   -24.6870 h4         1 7KB       0.021100
     23 H2         -17.3890    22.2250   -23.5030 ha         1 7KB       0.120000
     24 H3         -11.7130    23.9580   -29.1630 h1         1 7KB       0.056200
     25 H4         -12.8430    22.8070   -29.8620 h1         1 7KB       0.056200
     26 H5         -17.9100    24.4020   -22.6780 h4         1 7KB       0.019100
     27 H6         -16.3220    20.7400   -25.1690 ha         1 7KB       0.121000
     28 H7         -14.9810    21.6770   -26.9870 ha         1 7KB       0.114000
     29 H8         -12.8280    22.9810   -25.6350 h1         1 7KB       0.052700
     30 H9         -12.1600    21.5610   -26.3950 h1         1 7KB       0.052700
     31 H10        -10.6010    23.3150   -25.2740 h1         1 7KB       0.068700
     32 H11        -10.7880    24.2740   -26.7410 h1         1 7KB       0.068700
     33 H12         -9.8990    21.4250   -26.6600 hn         1 7KB       0.402000
     34 H14         -8.9270    21.6850   -28.8000 h1         1 7KB       0.060200
     35 H15         -9.4640    23.3640   -28.8600 h1         1 7KB       0.060200
     36 H16        -11.3840    20.9530   -28.6800 hc         1 7KB       0.046700
     37 H17        -10.8610    21.7230   -30.1670 hc         1 7KB       0.046700
     38 H18        -15.8790    26.4220   -27.8180 hc         1 7KB       0.066033
     39 H19        -16.4060    27.8230   -26.9380 hc         1 7KB       0.066033
     40 H20        -14.7370    27.3310   -26.7730 hc         1 7KB       0.066033
@<TRIPOS>BOND
     1     1    19 ar  
     2     1    21 ar  
     3     1    22 1   
     4     2    11 2   
     5     3     5 ar  
     6     3     7 ar  
     7     3    23 1   
     8     4    13 1   
     9     4    18 1   
    10     4    24 1   
    11     4    25 1   
    12     5     6 ar  
    13     5    10 ar  
    14     6    21 ar  
    15     6    26 1   
    16     7     8 ar  
    17     7    27 1   
    18     8     9 ar  
    19     8    28 1   
    20     9    10 ar  
    21     9    11 1   
    22    10    19 ar  
    23    11    12 2   
    24    11    13 1   
    25    13    14 1   
    26    14    15 1   
    27    14    29 1   
    28    14    30 1   
    29    15    16 1   
    30    15    31 1   
    31    15    32 1   
    32    16    17 1   
    33    16    33 1   
    34    17    18 1   
    35    17    34 1   
    36    17    35 1   
    37    18    36 1   
    38    18    37 1   
    39    19    20 1   
    40    20    38 1   
    41    20    39 1   
    42    20    40 1   
@<TRIPOS>SUBSTRUCTURE
     1 7KB         1 TEMP              0 ****  ****    0 ROOT
