@<TRIPOS>MOLECULE
7KB
   40    42     1     0     0
SMALL
abcg2


@<TRIPOS>ATOM
      1 C2         -17.3120    26.7160   -25.1590 ca         1 7KB       0.326900
      2 O1         -13.9980    24.9780   -28.2790 o          1 7KB      -0.544000
      3 C9         -17.0960    22.6350   -24.7290 ca         1 7KB      -0.030000
      4 C10        -12.7940    22.3760   -28.5400 c3         1 7KB       0.231800
      5 C4         -17.0990    24.0360   -24.9160 ca         1 7KB      -0.119000
      6 C3         -18.1790    24.7750   -24.3820 ca         1 7KB       0.353900
      7 C8         -16.0750    21.8760   -25.2190 ca         1 7KB      -0.140000
      8 C7         -15.0260    22.5080   -25.9080 ca         1 7KB      -0.027000
      9 C6         -14.9930    23.8690   -26.1150 ca         1 7KB      -0.251500
     10 C5         -16.0500    24.7150   -25.6220 ca         1 7KB       0.090000
     11 S          -13.5450    24.4550   -27.0090 sy         1 7KB       1.209600
     12 O          -12.8100    25.3160   -26.1080 o          1 7KB      -0.544000
     13 N1         -12.6050    23.1730   -27.3160 n3         1 7KB      -0.814500
     14 C14        -11.6750    22.6990   -26.2770 c3         1 7KB       0.195800
     15 C13        -10.2430    23.1890   -26.5230 c3         1 7KB       0.146800
     16 N2          -9.5380    22.6260   -27.6670 n7         1 7KB      -0.855400
     17 C12        -10.2480    22.6740   -28.9480 c3         1 7KB       0.164800
     18 C11        -11.4860    21.7680   -29.0480 c3         1 7KB      -0.119400
     19 C1         -16.1990    26.1380   -25.7380 ca         1 7KB      -0.106300
     20 C          -15.2660    27.0870   -26.4390 c3         1 7KB      -0.081800
     21 N          -18.2940    26.0750   -24.4880 nb         1 7KB      -0.652000
     22 H1         -17.4330    27.7900   -25.2380 h4         1 7KB       0.021100
     23 H2         -17.9200    22.1850   -24.1900 ha         1 7KB       0.120000
     24 H3         -13.2040    23.0430   -29.2920 h1         1 7KB       0.056200
     25 H4         -13.5230    21.5780   -28.3670 h1         1 7KB       0.056200
     26 H5         -18.9600    24.2380   -23.8510 h4         1 7KB       0.019100
     27 H6         -16.0550    20.8030   -25.0850 ha         1 7KB       0.121000
     28 H7         -14.2240    21.8920   -26.2790 ha         1 7KB       0.114000
     29 H8         -12.0120    23.0600   -25.3070 h1         1 7KB       0.052700
     30 H9         -11.7200    21.6080   -26.2500 h1         1 7KB       0.052700
     31 H10         -9.6540    22.9710   -25.6290 h1         1 7KB       0.068700
     32 H11        -10.2810    24.2760   -26.6320 h1         1 7KB       0.068700
     33 H12         -9.2940    21.6610   -27.4670 hn         1 7KB       0.402000
     34 H14         -9.5380    22.3740   -29.7210 h1         1 7KB       0.060200
     35 H15        -10.5210    23.7140   -29.1500 h1         1 7KB       0.060200
     36 H16        -11.2710    20.8360   -28.5200 hc         1 7KB       0.046700
     37 H17        -11.6570    21.4960   -30.0930 hc         1 7KB       0.046700
     38 H18        -15.1380    26.8290   -27.4870 hc         1 7KB       0.066033
     39 H19        -15.6750    28.0950   -26.3800 hc         1 7KB       0.066033
     40 H20        -14.2770    27.0910   -25.9860 hc         1 7KB       0.066033
@<TRIPOS>BOND
     1     1    19 ar  
     2     1    21 ar  
     3     1    22 1   
     4     2    11 2   
     5     3     5 ar  
     6     3     7 ar  
     7     3    23 1   
     8     4    13 1   
     9     4    18 1   
    10     4    24 1   
    11     4    25 1   
    12     5     6 ar  
    13     5    10 ar  
    14     6    21 ar  
    15     6    26 1   
    16     7     8 ar  
    17     7    27 1   
    18     8     9 ar  
    19     8    28 1   
    20     9    10 ar  
    21     9    11 1   
    22    10    19 ar  
    23    11    12 2   
    24    11    13 1   
    25    13    14 1   
    26    14    15 1   
    27    14    29 1   
    28    14    30 1   
    29    15    16 1   
    30    15    31 1   
    31    15    32 1   
    32    16    17 1   
    33    16    33 1   
    34    17    18 1   
    35    17    34 1   
    36    17    35 1   
    37    18    36 1   
    38    18    37 1   
    39    19    20 1   
    40    20    38 1   
    41    20    39 1   
    42    20    40 1   
@<TRIPOS>SUBSTRUCTURE
     1 7KB         1 TEMP              0 ****  ****    0 ROOT
