@<TRIPOS>MOLECULE
7KC
   65    69     1     0     0
SMALL
bcc


@<TRIPOS>ATOM
      1 C1          -4.6880     1.0670    -0.4690 ca         1 7KC      -0.350700
      2 C2          -4.4410     2.3130     0.1020 ca         1 7KC       0.496100
      3 C8          -6.7270     2.4040    -0.2020 cc         1 7KC      -0.089400
      4 C9          -5.6430     3.0760     0.2500 cd         1 7KC      -0.241800
      5 C12         -2.7410    -1.9490    -1.4610 cc         1 7KC       0.605200
      6 C13         -1.3580    -1.9660    -1.2060 cc         1 7KC      -0.277600
      7 C14         -0.9500    -3.1780    -1.6750 cd         1 7KC      -0.104600
      8 N18          0.8920    -2.1940    -0.8500 n          1 7KC      -0.515800
      9 C19          0.5100    -3.4560    -1.5310 c5         1 7KC       0.233700
     10 C20          2.1790    -1.9170    -0.5080 c          1 7KC       0.799100
     11 C24          3.9360    -0.7620     1.9930 c3         1 7KC       0.148800
     12 N25          5.1740    -0.2610     2.5450 n3         1 7KC      -0.712600
     13 C27          5.2400    -0.4810     3.9720 c3         1 7KC       0.153600
     14 C30          4.5980     3.1980    -0.6850 ca         1 7KC      -0.129500
     15 C31          3.8390     4.0120     0.1440 ca         1 7KC      -0.125000
     16 C32          3.0390     3.4370     1.1250 ca         1 7KC      -0.129500
     17 C33          3.0040     2.0590     1.2740 ca         1 7KC      -0.114000
     18 C34          0.7500    -4.6890    -0.6590 c3         1 7KC      -0.099100
     19 C35          1.1620    -3.6150    -2.9060 c3         1 7KC      -0.099100
     20 C29          4.5510     1.8170    -0.5370 ca         1 7KC      -0.114000
     21 C28          3.7570     1.2320     0.4420 ca         1 7KC      -0.072300
     22 C23          3.6740    -0.2720     0.5640 c3         1 7KC       0.169000
     23 C26          6.3390    -0.7980     1.8770 c3         1 7KC       0.153600
     24 N22          2.3720    -0.7130     0.1030 ns         1 7KC      -0.590900
     25 O21          3.1140    -2.6770    -0.7470 o          1 7KC      -0.657100
     26 C17         -0.1980    -1.2260    -0.6480 c5         1 7KC       0.214300
     27 N15         -2.0120    -3.8150    -2.1660 na         1 7KC       0.025400
     28 N16         -3.1220    -3.0760    -2.0440 nd         1 7KC      -0.582800
     29 C6          -3.5840     0.2160    -0.6670 ca         1 7KC       0.774200
     30 S7          -6.3610     0.8360    -0.8190 ss         1 7KC      -0.034500
     31 N3          -3.2080     2.7130     0.4600 nb         1 7KC      -0.709000
     32 C4          -2.2430     1.8480     0.2350 ca         1 7KC       0.707300
     33 N5          -2.3840     0.6310    -0.3090 nb         1 7KC      -0.800000
     34 H1          -7.7520     2.7420    -0.2100 h4         1 7KC       0.172000
     35 H2          -5.6770     4.0690     0.6730 ha         1 7KC       0.172000
     36 H3          -0.4820     1.5690     1.4120 hc         1 7KC       0.058367
     37 H4          -0.1690     2.1260    -0.2240 hc         1 7KC       0.058367
     38 H5          -0.8060     3.2520     0.9850 hc         1 7KC       0.058367
     39 H6           3.8920    -1.8640     1.9930 h1         1 7KC       0.037200
     40 H7           3.1140    -0.4210     2.6290 h1         1 7KC       0.037200
     41 H9           6.1560    -0.0440     4.3740 h1         1 7KC       0.030367
     42 H10          4.3970     0.0030     4.4670 h1         1 7KC       0.030367
     43 H11          5.2290    -1.5460     4.2550 h1         1 7KC       0.030367
     44 H13          3.8700     5.0880     0.0290 ha         1 7KC       0.129000
     45 H14          2.4440     4.0640     1.7770 ha         1 7KC       0.129500
     46 H15          2.3850     1.6300     2.0550 ha         1 7KC       0.127000
     47 H16          0.3000    -4.5610     0.3260 hc         1 7KC       0.051533
     48 H17          0.3040    -5.5690    -1.1240 hc         1 7KC       0.051533
     49 H18          1.8130    -4.8790    -0.5350 hc         1 7KC       0.051533
     50 H19          2.2270    -3.8120    -2.8150 hc         1 7KC       0.051533
     51 H20          0.7100    -4.4550    -3.4360 hc         1 7KC       0.051533
     52 H21          1.0210    -2.7190    -3.5100 hc         1 7KC       0.051533
     53 H22          5.1410     1.1880    -1.1930 ha         1 7KC       0.127000
     54 H23          4.4090    -0.7140    -0.1100 h1         1 7KC       0.084700
     55 H24          6.3430    -0.5300     0.8210 h1         1 7KC       0.030367
     56 H25          7.2440    -0.3770     2.3180 h1         1 7KC       0.030367
     57 H26          6.4110    -1.8960     1.9440 h1         1 7KC       0.030367
     58 H27          1.5820    -0.1910     0.4450 hn         1 7KC       0.310500
     59 H28          0.0020    -0.2920    -1.1790 h1         1 7KC       0.059200
     60 H29         -0.3300    -0.9870     0.4110 h1         1 7KC       0.059200
     61 H30         -2.0700    -4.7260    -2.5920 hn         1 7KC       0.331700
     62 C11         -0.8490     2.2280     0.6230 c3         1 7KC      -0.134400
     63 N10         -3.7320    -1.0100    -1.2150 nu         1 7KC      -0.829600
     64 H12          5.2240     3.6380    -1.4510 ha         1 7KC       0.129500
     65 H31         -4.6590    -1.3070    -1.4790 hn         1 7KC       0.463800
@<TRIPOS>BOND
     1     1     2 ar  
     2     1    29 ar  
     3     1    30 1   
     4     2     4 1   
     5     2    31 ar  
     6     3     4 2   
     7     3    30 1   
     8     3    34 1   
     9     4    35 1   
    10     5     6 1   
    11     5    28 2   
    12     5    63 1   
    13     6     7 2   
    14     6    26 1   
    15     7     9 1   
    16     7    27 1   
    17     8     9 1   
    18     8    10 1   
    19     8    26 1   
    20     9    18 1   
    21     9    19 1   
    22    10    24 1   
    23    10    25 2   
    24    11    12 1   
    25    11    22 1   
    26    11    39 1   
    27    11    40 1   
    28    12    13 1   
    29    12    23 1   
    30    13    41 1   
    31    13    42 1   
    32    13    43 1   
    33    14    15 ar  
    34    14    20 ar  
    35    14    64 1   
    36    15    16 ar  
    37    15    44 1   
    38    16    17 ar  
    39    16    45 1   
    40    17    21 ar  
    41    17    46 1   
    42    18    47 1   
    43    18    48 1   
    44    18    49 1   
    45    19    50 1   
    46    19    51 1   
    47    19    52 1   
    48    20    21 ar  
    49    20    53 1   
    50    21    22 1   
    51    22    24 1   
    52    22    54 1   
    53    23    55 1   
    54    23    56 1   
    55    23    57 1   
    56    24    58 1   
    57    26    59 1   
    58    26    60 1   
    59    27    28 1   
    60    27    61 1   
    61    29    33 ar  
    62    29    63 1   
    63    31    32 ar  
    64    32    33 ar  
    65    32    62 1   
    66    36    62 1   
    67    37    62 1   
    68    38    62 1   
    69    63    65 1   
@<TRIPOS>SUBSTRUCTURE
     1 7KC         1 TEMP              0 ****  ****    0 ROOT
