@<TRIPOS>MOLECULE
7KC
   65    69     1     0     0
SMALL
No Charge or Current Charge


@<TRIPOS>ATOM
      1 C1          -4.0210     1.0180    -0.0130 ca         1 7KC      -0.347000
      2 C2          -3.7450     2.3240     0.3060 ca         1 7KC       0.167800
      3 C8          -5.7030     1.9570     1.5970 cc         1 7KC      -0.139400
      4 C9          -4.7130     2.8520     1.2270 cd         1 7KC      -0.291800
      5 C12         -2.6340    -1.9660    -1.7560 cc         1 7KC       0.539900
      6 C13         -1.2410    -2.0610    -1.7770 cc         1 7KC      -0.212300
      7 C14         -0.9020    -3.2740    -2.1920 cd         1 7KC      -0.155300
      8 N18          0.8850    -2.3040    -0.9850 n          1 7KC      -0.448800
      9 C19          0.4940    -3.5820    -1.6860 c5         1 7KC       0.233700
     10 C20          2.1430    -2.0390    -0.4290 c          1 7KC       0.665100
     11 C24          3.7280    -0.8350     2.1310 c3         1 7KC       0.148800
     12 N25          4.9180    -0.3270     2.8720 n3         1 7KC      -0.712600
     13 C27          4.9390    -0.7850     4.2780 c3         1 7KC       0.153600
     14 C30          4.1980     3.4280    -0.1830 ca         1 7KC      -0.111500
     15 C31          3.2390     4.0990     0.5940 ca         1 7KC      -0.107000
     16 C32          2.3680     3.3660     1.4170 ca         1 7KC      -0.111500
     17 C33          2.4570     1.9640     1.4640 ca         1 7KC      -0.096000
     18 C34          0.4380    -4.7820    -0.7110 c3         1 7KC      -0.099100
     19 C35          1.3960    -3.8980    -2.9030 c3         1 7KC      -0.099100
     20 C29          4.2870     2.0260    -0.1380 ca         1 7KC      -0.096000
     21 C28          3.4200     1.2820     0.6890 ca         1 7KC      -0.072300
     22 C23          3.4980    -0.2450     0.7050 c3         1 7KC       0.169000
     23 C26          6.2040    -0.5890     2.1840 c3         1 7KC       0.153600
     24 N22          2.2850    -0.7780     0.0870 ns         1 7KC      -0.523900
     25 O21          3.0490    -2.8550    -0.4040 o          1 7KC      -0.657100
     26 C17         -0.2160    -1.3000    -1.0380 c5         1 7KC       0.214300
     27 N15         -2.1200    -3.9410    -2.3860 na         1 7KC       0.025800
     28 N16         -3.2180    -3.0790    -2.1420 nd         1 7KC      -0.582800
     29 C6          -3.1560     0.3600    -0.8900 ca         1 7KC       0.445900
     30 S7          -5.4760     0.3710     0.8000 ss         1 7KC       0.092400
     31 N3          -2.6930     3.0010    -0.1810 nb         1 7KC      -0.183000
     32 C4          -1.9140     2.2980    -1.0350 ca         1 7KC       0.181300
     33 N5          -2.1020     1.0110    -1.4190 nb         1 7KC      -0.274000
     34 H1          -6.5420     2.0980     2.2700 h4         1 7KC       0.222000
     35 H2          -4.6700     3.8710     1.6020 ha         1 7KC       0.222000
     36 H3           0.1830     2.8330    -0.9590 hc         1 7KC       0.058367
     37 H4          -0.4490     2.6460    -2.6030 hc         1 7KC       0.058367
     38 H5          -0.8500     4.0880    -1.6630 hc         1 7KC       0.058367
     39 H6           3.7980    -1.9280     2.0430 h1         1 7KC       0.037200
     40 H7           2.8250    -0.6300     2.7220 h1         1 7KC       0.037200
     41 H9           5.7760    -0.3310     4.8230 h1         1 7KC       0.030367
     42 H10          4.0100    -0.5030     4.7920 h1         1 7KC       0.030367
     43 H11          5.0440    -1.8770     4.3320 h1         1 7KC       0.030367
     44 H13          3.1700     5.1840     0.5570 ha         1 7KC       0.111000
     45 H14          1.6230     3.8830     2.0160 ha         1 7KC       0.111500
     46 H15          1.7720     1.4080     2.1000 ha         1 7KC       0.109000
     47 H16         -0.2220    -4.5670     0.1380 hc         1 7KC       0.051533
     48 H17          0.0590    -5.6820    -1.2090 hc         1 7KC       0.051533
     49 H18          1.4290    -5.0200    -0.3100 hc         1 7KC       0.051533
     50 H19          2.4160    -4.1570    -2.5990 hc         1 7KC       0.051533
     51 H20          1.0000    -4.7430    -3.4770 hc         1 7KC       0.051533
     52 H21          1.4570    -3.0370    -3.5790 hc         1 7KC       0.051533
     53 H22          5.0290     1.5180    -0.7500 ha         1 7KC       0.109000
     54 H23          4.3440    -0.5550     0.0770 h1         1 7KC       0.084700
     55 H24          6.2300    -0.1110     1.1960 h1         1 7KC       0.030367
     56 H25          7.0440    -0.1850     2.7660 h1         1 7KC       0.030367
     57 H26          6.3650    -1.6670     2.0520 h1         1 7KC       0.030367
     58 H27          1.4880    -0.1630     0.0130 hn         1 7KC       0.310500
     59 H28          0.0880    -0.4040    -1.5930 h1         1 7KC       0.059200
     60 H29         -0.5690    -1.0210    -0.0350 h1         1 7KC       0.059200
     61 H30         -2.2460    -4.9260    -2.6210 hn         1 7KC       0.382000
     62 C11         -0.6920     3.0050    -1.5960 c3         1 7KC      -0.134400
     63 N10         -3.3840    -0.9560    -1.2450 nu         1 7KC      -0.884800
     64 H12          4.8710     3.9940    -0.8230 ha         1 7KC       0.111500
     65 H31         -4.3290    -1.2690    -1.0620 hn         1 7KC       0.519000
@<TRIPOS>BOND
     1     1     2 ar  
     2     1    29 ar  
     3     1    30 1   
     4     2     4 1   
     5     2    31 ar  
     6     3     4 2   
     7     3    30 1   
     8     3    34 1   
     9     4    35 1   
    10     5     6 1   
    11     5    28 2   
    12     5    63 1   
    13     6     7 2   
    14     6    26 1   
    15     7     9 1   
    16     7    27 1   
    17     8     9 1   
    18     8    10 1   
    19     8    26 1   
    20     9    18 1   
    21     9    19 1   
    22    10    24 1   
    23    10    25 2   
    24    11    12 1   
    25    11    22 1   
    26    11    39 1   
    27    11    40 1   
    28    12    13 1   
    29    12    23 1   
    30    13    41 1   
    31    13    42 1   
    32    13    43 1   
    33    14    15 ar  
    34    14    20 ar  
    35    14    64 1   
    36    15    16 ar  
    37    15    44 1   
    38    16    17 ar  
    39    16    45 1   
    40    17    21 ar  
    41    17    46 1   
    42    18    47 1   
    43    18    48 1   
    44    18    49 1   
    45    19    50 1   
    46    19    51 1   
    47    19    52 1   
    48    20    21 ar  
    49    20    53 1   
    50    21    22 1   
    51    22    24 1   
    52    22    54 1   
    53    23    55 1   
    54    23    56 1   
    55    23    57 1   
    56    24    58 1   
    57    26    59 1   
    58    26    60 1   
    59    27    28 1   
    60    27    61 1   
    61    29    33 ar  
    62    29    63 1   
    63    31    32 ar  
    64    32    33 ar  
    65    32    62 1   
    66    36    62 1   
    67    37    62 1   
    68    38    62 1   
    69    63    65 1   
@<TRIPOS>SUBSTRUCTURE
     1 7KC         1 TEMP              0 ****  ****    0 ROOT
