@<TRIPOS>MOLECULE
7KD
   56    58     1     0     0
SMALL
bcc


@<TRIPOS>ATOM
      1 C1          -0.8380     3.0030     0.1450 ca         1 7KD      -0.583900
      2 C2          -1.1910     1.9310    -0.7260 ca         1 7KD       0.817200
      3 C8          -1.7590     4.1200     0.4690 c3         1 7KD       0.745200
      4 C13          3.0190    -0.2750    -0.4060 ca         1 7KD       0.206600
      5 C14          3.8430     0.5230     0.3940 ca         1 7KD      -0.180000
      6 C15          5.1400     0.1220     0.6620 ca         1 7KD      -0.061500
      7 C16          5.6600    -1.0730     0.1730 ca         1 7KD      -0.183600
      8 C19          7.0690    -1.4270     0.5040 c          1 7KD       0.681700
      9 C22          8.7490    -3.1820     0.6690 c3         1 7KD       0.095300
     10 C24         -3.9310    -0.0620    -1.5790 ca         1 7KD       0.329300
     11 N26         -4.8860    -1.3350     0.1840 nb         1 7KD      -0.672000
     12 C27         -5.9920    -1.4160    -0.5410 ca         1 7KD       0.305900
     13 N29         -5.0390    -0.1570    -2.3010 nb         1 7KD      -0.632000
     14 C32         -2.8050     0.1040     1.7310 c3         1 7KD       0.185100
     15 C33         -2.4060    -3.1990     1.3010 c3         1 7KD      -0.258300
     16 N20          7.4140    -2.7180     0.3790 ns         1 7KD      -0.572900
     17 O21          7.8700    -0.5750     0.8740 o          1 7KD      -0.608100
     18 C17          4.8350    -1.8610    -0.6310 ca         1 7KD      -0.061500
     19 C18          3.5430    -1.4700    -0.9170 ca         1 7KD      -0.180000
     20 N12          1.7160     0.0250    -0.7610 nu         1 7KD      -0.713300
     21 C4           0.8910     1.0490    -0.4150 ca         1 7KD       0.989900
     22 N3          -0.3010     0.9890    -0.9920 nb         1 7KD      -0.878000
     23 N5           1.3110     1.9910     0.4230 nb         1 7KD      -0.785000
     24 C6           0.4320     2.9510     0.6770 ca         1 7KD       0.555200
     25 F10         -1.2040     5.0160     1.2870 f          1 7KD      -0.240967
     26 F11         -2.1560     4.7890    -0.6300 f          1 7KD      -0.240967
     27 F9          -2.8910     3.7010     1.0680 f          1 7KD      -0.240967
     28 N7          -2.3990     1.8230    -1.3000 nu         1 7KD      -0.860900
     29 C23         -2.7920     0.7320    -2.1590 c3         1 7KD       0.176500
     30 C28         -6.0610    -0.8330    -1.7960 ca         1 7KD       0.303900
     31 C25         -3.8620    -0.6810    -0.3270 ca         1 7KD       0.502900
     32 N30         -2.6810    -0.5870     0.4510 nh         1 7KD      -0.707200
     33 S31         -1.6470    -1.8900     0.3640 s6         1 7KD       1.237900
     34 O34         -0.4200    -1.5140     1.0430 o          1 7KD      -0.603300
     35 O35         -1.6150    -2.2950    -1.0320 o          1 7KD      -0.603300
     36 H1           3.4740     1.4490     0.8030 ha         1 7KD       0.153000
     37 H2           5.7600     0.7590     1.2790 ha         1 7KD       0.140500
     38 H3           9.4900    -2.6680     0.0590 h1         1 7KD       0.039033
     39 H4           9.0130    -3.0400     1.7190 h1         1 7KD       0.039033
     40 H5           8.7990    -4.2440     0.4450 h1         1 7KD       0.039033
     41 H6          -6.8340    -1.9530    -0.1230 h4         1 7KD       0.038100
     42 H7          -3.4090    -0.4440     2.4570 h1         1 7KD       0.060700
     43 H8          -1.8180     0.2880     2.1460 h1         1 7KD       0.060700
     44 H9          -3.2720     1.0690     1.5490 h1         1 7KD       0.060700
     45 H10         -2.5580    -2.8730     2.3280 h1         1 7KD       0.104700
     46 H11         -3.3550    -3.4700     0.8470 h1         1 7KD       0.104700
     47 H12         -1.7250    -4.0480     1.2840 h1         1 7KD       0.104700
     48 H13          6.7070    -3.4090     0.2010 hn         1 7KD       0.314500
     49 H14          5.1920    -2.7830    -1.0710 ha         1 7KD       0.140500
     50 H15          2.9290    -2.0950    -1.5550 ha         1 7KD       0.153000
     51 H16          1.2550    -0.6610    -1.3410 hn         1 7KD       0.459800
     52 H17          0.7740     3.7260     1.3530 h4         1 7KD       0.036100
     53 H18         -3.0790     2.5540    -1.1840 hn         1 7KD       0.451800
     54 H19         -1.9290     0.0920    -2.3220 h1         1 7KD       0.096700
     55 H20         -3.1110     1.1210    -3.1270 h1         1 7KD       0.096700
     56 H21         -6.9600    -0.9040    -2.3950 h4         1 7KD       0.039100
@<TRIPOS>BOND
     1     1     2 ar  
     2     1     3 1   
     3     1    24 ar  
     4     2    22 ar  
     5     2    28 1   
     6     3    25 1   
     7     3    26 1   
     8     3    27 1   
     9     4     5 ar  
    10     4    19 ar  
    11     4    20 1   
    12     5     6 ar  
    13     5    36 1   
    14     6     7 ar  
    15     6    37 1   
    16     7     8 1   
    17     7    18 ar  
    18     8    16 1   
    19     8    17 2   
    20     9    16 1   
    21     9    38 1   
    22     9    39 1   
    23     9    40 1   
    24    10    13 ar  
    25    10    29 1   
    26    10    31 ar  
    27    11    12 ar  
    28    11    31 ar  
    29    12    30 ar  
    30    12    41 1   
    31    13    30 ar  
    32    14    32 1   
    33    14    42 1   
    34    14    43 1   
    35    14    44 1   
    36    15    33 1   
    37    15    45 1   
    38    15    46 1   
    39    15    47 1   
    40    16    48 1   
    41    18    19 ar  
    42    18    49 1   
    43    19    50 1   
    44    20    21 1   
    45    20    51 1   
    46    21    22 ar  
    47    21    23 ar  
    48    23    24 ar  
    49    24    52 1   
    50    28    29 1   
    51    28    53 1   
    52    29    54 1   
    53    29    55 1   
    54    30    56 1   
    55    31    32 1   
    56    32    33 1   
    57    33    34 2   
    58    33    35 2   
@<TRIPOS>SUBSTRUCTURE
     1 7KD         1 TEMP              0 ****  ****    0 ROOT
