@<TRIPOS>MOLECULE
7KD
   56    58     1     0     0
SMALL
No Charge or Current Charge


@<TRIPOS>ATOM
      1 C1          -0.9860     3.2650    -0.3450 ca         1 7KD      -0.453300
      2 C2          -1.2940     2.1290    -1.1030 ca         1 7KD       0.488900
      3 C8          -1.9400     4.4460    -0.1990 c3         1 7KD       0.381300
      4 C13          2.8220    -0.2180    -0.2830 ca         1 7KD       0.345000
      5 C14          3.8210     0.7670    -0.2280 ca         1 7KD      -0.162000
      6 C15          5.1370     0.4310     0.1340 ca         1 7KD      -0.043500
      7 C16          5.4840    -0.9030     0.4430 ca         1 7KD      -0.183600
      8 C19          6.9120    -1.2290     0.8310 c          1 7KD       0.614700
      9 C22          8.5140    -3.0420     1.5130 c3         1 7KD       0.095300
     10 C24         -4.0630     0.1050    -1.0940 ca         1 7KD       0.329300
     11 N26         -4.3520    -1.2820     0.9040 nb         1 7KD      -0.672000
     12 C27         -5.6630    -0.9210     0.8420 ca         1 7KD       0.305900
     13 N29         -5.3840     0.4640    -1.1430 nb         1 7KD      -0.632000
     14 C32         -1.5150    -0.8830     1.3410 c3         1 7KD       0.185100
     15 C33         -2.1540    -3.9080     0.0570 c3         1 7KD      -0.369100
     16 N20          7.1930    -2.5460     1.1200 ns         1 7KD      -0.505900
     17 O21          7.7830    -0.3720     0.8880 o          1 7KD      -0.608100
     18 C17          4.4750    -1.8930     0.3700 ca         1 7KD      -0.043500
     19 C18          3.1620    -1.5470     0.0050 ca         1 7KD      -0.162000
     20 N12          1.5100     0.0750    -0.6520 nu         1 7KD      -0.906900
     21 C4           0.7050     1.1950    -0.5540 ca         1 7KD       0.463900
     22 N3          -0.4480     1.0990    -1.2160 nb         1 7KD      -0.352000
     23 N5           1.1150     2.2270     0.1980 nb         1 7KD      -0.259000
     24 C6           0.2680     3.2650     0.2970 ca         1 7KD       0.226900
     25 F10         -1.4380     5.4330     0.5770 f          1 7KD      -0.119667
     26 F11         -2.2290     5.0040    -1.3960 f          1 7KD      -0.119667
     27 F9          -3.1120     4.0720     0.3610 f          1 7KD      -0.119667
     28 N7          -2.4980     2.0080    -1.7770 nu         1 7KD      -0.916100
     29 C23         -3.1670     0.7340    -2.1810 c3         1 7KD       0.176500
     30 C28         -6.1730    -0.0630    -0.1670 ca         1 7KD       0.303900
     31 C25         -3.5550    -0.7780    -0.0720 ca         1 7KD       0.502900
     32 N30         -2.2120    -1.1380     0.0640 nh         1 7KD      -0.707200
     33 S31         -1.6560    -2.4670    -0.8650 s6         1 7KD       1.207100
     34 O34         -0.1930    -2.3830    -0.8830 o          1 7KD      -0.532500
     35 O35         -2.4080    -2.4480    -2.1210 o          1 7KD      -0.532500
     36 H1           3.5920     1.7970    -0.4810 ha         1 7KD       0.135000
     37 H2           5.8900     1.2170     0.1700 ha         1 7KD       0.122500
     38 H3           9.2380    -2.8360     0.7140 h1         1 7KD       0.039033
     39 H4           8.8370    -2.5440     2.4360 h1         1 7KD       0.039033
     40 H5           8.4630    -4.1250     1.6840 h1         1 7KD       0.039033
     41 H6          -6.3190    -1.3210     1.6130 h4         1 7KD       0.038100
     42 H7          -1.7830    -1.6400     2.0910 h1         1 7KD       0.060700
     43 H8          -0.4260    -0.8940     1.2120 h1         1 7KD       0.060700
     44 H9          -1.7890     0.1050     1.7320 h1         1 7KD       0.060700
     45 H10         -1.6560    -3.8680     1.0300 h1         1 7KD       0.104700
     46 H11         -3.2420    -3.8720     0.1640 h1         1 7KD       0.104700
     47 H12         -1.8380    -4.7860    -0.5150 h1         1 7KD       0.104700
     48 H13          6.4290    -3.2060     1.0560 hn         1 7KD       0.314500
     49 H14          4.6870    -2.9360     0.5910 ha         1 7KD       0.122500
     50 H15          2.4020    -2.3220    -0.0440 ha         1 7KD       0.135000
     51 H16          0.9680    -0.7490    -0.9230 hn         1 7KD       0.515000
     52 H17          0.6060     4.0990     0.9110 h4         1 7KD       0.036100
     53 H18         -3.0950     2.8300    -1.7050 hn         1 7KD       0.507000
     54 H19         -2.4280     0.0020    -2.5280 h1         1 7KD       0.096700
     55 H20         -3.8110     0.9300    -3.0500 h1         1 7KD       0.096700
     56 H21         -7.2280     0.2080    -0.1870 h4         1 7KD       0.039100
@<TRIPOS>BOND
     1     1     2 ar  
     2     1     3 1   
     3     1    24 ar  
     4     2    22 ar  
     5     2    28 1   
     6     3    25 1   
     7     3    26 1   
     8     3    27 1   
     9     4     5 ar  
    10     4    19 ar  
    11     4    20 1   
    12     5     6 ar  
    13     5    36 1   
    14     6     7 ar  
    15     6    37 1   
    16     7     8 1   
    17     7    18 ar  
    18     8    16 1   
    19     8    17 2   
    20     9    16 1   
    21     9    38 1   
    22     9    39 1   
    23     9    40 1   
    24    10    13 ar  
    25    10    29 1   
    26    10    31 ar  
    27    11    12 ar  
    28    11    31 ar  
    29    12    30 ar  
    30    12    41 1   
    31    13    30 ar  
    32    14    32 1   
    33    14    42 1   
    34    14    43 1   
    35    14    44 1   
    36    15    33 1   
    37    15    45 1   
    38    15    46 1   
    39    15    47 1   
    40    16    48 1   
    41    18    19 ar  
    42    18    49 1   
    43    19    50 1   
    44    20    21 1   
    45    20    51 1   
    46    21    22 ar  
    47    21    23 ar  
    48    23    24 ar  
    49    24    52 1   
    50    28    29 1   
    51    28    53 1   
    52    29    54 1   
    53    29    55 1   
    54    30    56 1   
    55    31    32 1   
    56    32    33 1   
    57    33    34 2   
    58    33    35 2   
@<TRIPOS>SUBSTRUCTURE
     1 7KD         1 TEMP              0 ****  ****    0 ROOT
