@<TRIPOS>MOLECULE
7KE
   27    28     1     0     0
SMALL
abcg2


@<TRIPOS>ATOM
      1 C15          5.7730    -0.8630     0.0900 c3         1 7KE       0.165600
      2 C14          4.3720    -0.4330    -0.3000 c3         1 7KE      -0.081400
      3 C13          3.6430     0.1810     0.9000 c3         1 7KE      -0.114700
      4 C11          2.2560     0.5670     0.5530 cc         1 7KE       0.490300
      5 C06         -3.8760    -0.3380    -0.0300 ca         1 7KE       0.137000
      6 C05         -2.9660    -1.2330     0.5100 ca         1 7KE      -0.116000
      7 C02         -2.1290     1.2380    -0.4490 ca         1 7KE      -0.060000
      8 C03         -1.1960     0.3530     0.0920 ca         1 7KE      -0.144500
      9 C04         -1.6270    -0.8830     0.5690 ca         1 7KE      -0.060000
     10 C01         -3.4680     0.8980    -0.5120 ca         1 7KE      -0.116000
     11 C08          0.2210     0.7030     0.1590 cd         1 7KE       0.615500
     12 N09          0.7000     1.8250    -0.2920 nc         1 7KE      -0.374300
     13 N12          1.1700    -0.1150     0.7000 nd         1 7KE      -0.719000
     14 O10          2.0370     1.7370    -0.0340 os         1 7KE      -0.084700
     15 O16          6.4040    -1.4160    -1.0410 oh         1 7KE      -0.657000
     16 H152         6.3230     0.0060     0.4750 h1         1 7KE       0.017700
     17 H151         5.7100    -1.5870     0.9130 h1         1 7KE       0.017700
     18 H141         4.4240     0.2930    -1.1150 hc         1 7KE       0.068200
     19 H142         3.8100    -1.2970    -0.6640 hc         1 7KE       0.068200
     20 H131         3.5910    -0.5380     1.7180 hc         1 7KE       0.075700
     21 H132         4.1850     1.0570     1.2630 hc         1 7KE       0.075700
     22 H051        -3.2930    -2.1940     0.8830 ha         1 7KE       0.133500
     23 H021        -1.8140     2.2020    -0.8260 ha         1 7KE       0.137500
     24 H041        -0.9150    -1.5810     0.9890 ha         1 7KE       0.137500
     25 H011        -4.1860     1.5900    -0.9310 ha         1 7KE       0.133500
     26 H161         7.2820    -1.7080    -0.7830 ho         1 7KE       0.447000
     27 CL7         -5.5490    -0.7690    -0.1040 cl         1 7KE      -0.195000
@<TRIPOS>BOND
     1     1     2 1   
     2     1    15 1   
     3     1    16 1   
     4     1    17 1   
     5     2     3 1   
     6     2    18 1   
     7     2    19 1   
     8     3     4 1   
     9     3    20 1   
    10     3    21 1   
    11     4    13 2   
    12     4    14 1   
    13     5     6 ar  
    14     5    10 ar  
    15     5    27 1   
    16     6     9 ar  
    17     6    22 1   
    18     7     8 ar  
    19     7    10 ar  
    20     7    23 1   
    21     8     9 ar  
    22     8    11 1   
    23     9    24 1   
    24    10    25 1   
    25    11    12 2   
    26    11    13 1   
    27    12    14 1   
    28    15    26 1   
@<TRIPOS>SUBSTRUCTURE
     1 7KE         1 TEMP              0 ****  ****    0 ROOT
