@<TRIPOS>MOLECULE
7KE
   27    28     1     0     0
SMALL
No Charge or Current Charge


@<TRIPOS>ATOM
      1 C15          5.8580    -0.8920     0.0990 c3         1 7KE       0.165600
      2 C14          4.4260    -0.4670    -0.2810 c3         1 7KE      -0.081400
      3 C13          3.6620     0.2030     0.8850 c3         1 7KE      -0.114700
      4 C11          2.2650     0.6160     0.5180 cc         1 7KE       0.490300
      5 C06         -3.9620    -0.3550    -0.0290 ca         1 7KE       0.137000
      6 C05         -3.0200    -1.2570     0.4860 ca         1 7KE      -0.116000
      7 C02         -2.1900     1.2670    -0.4280 ca         1 7KE      -0.060000
      8 C03         -1.2270     0.3670     0.0890 ca         1 7KE      -0.144500
      9 C04         -1.6610    -0.9010     0.5450 ca         1 7KE      -0.060000
     10 C01         -3.5480     0.9050    -0.4850 ca         1 7KE      -0.116000
     11 C08          0.2050     0.7410     0.1520 cd         1 7KE       0.615500
     12 N09          0.6620     1.9150    -0.2630 nc         1 7KE      -0.374300
     13 N12          1.1740    -0.1040     0.6480 nd         1 7KE      -0.719000
     14 O10          2.0510     1.8450    -0.0240 os         1 7KE      -0.084700
     15 O16          6.4940    -1.4990    -1.0290 oh         1 7KE      -0.657000
     16 H152         6.4240    -0.0100     0.4260 h1         1 7KE       0.017700
     17 H151         5.8160    -1.5990     0.9390 h1         1 7KE       0.017700
     18 H141         4.4710     0.2260    -1.1300 hc         1 7KE       0.068200
     19 H142         3.8680    -1.3500    -0.6180 hc         1 7KE       0.068200
     20 H131         3.6200    -0.4870     1.7360 hc         1 7KE       0.075700
     21 H132         4.2190     1.0840     1.2260 hc         1 7KE       0.075700
     22 H051        -3.3420    -2.2330     0.8390 ha         1 7KE       0.133500
     23 H021        -1.8940     2.2500    -0.7880 ha         1 7KE       0.137500
     24 H041        -0.9470    -1.6170     0.9490 ha         1 7KE       0.137500
     25 H011        -4.2800     1.6030    -0.8840 ha         1 7KE       0.133500
     26 H161         7.4000    -1.7540    -0.7430 ho         1 7KE       0.447000
     27 Cl7         -5.6610    -0.8030    -0.1030 cl         1 7KE      -0.195000
@<TRIPOS>BOND
     1     1     2 1   
     2     1    15 1   
     3     1    16 1   
     4     1    17 1   
     5     2     3 1   
     6     2    18 1   
     7     2    19 1   
     8     3     4 1   
     9     3    20 1   
    10     3    21 1   
    11     4    13 2   
    12     4    14 1   
    13     5     6 ar  
    14     5    10 ar  
    15     5    27 1   
    16     6     9 ar  
    17     6    22 1   
    18     7     8 ar  
    19     7    10 ar  
    20     7    23 1   
    21     8     9 ar  
    22     8    11 1   
    23     9    24 1   
    24    10    25 1   
    25    11    12 2   
    26    11    13 1   
    27    12    14 1   
    28    15    26 1   
@<TRIPOS>SUBSTRUCTURE
     1 7KE         1 TEMP              0 ****  ****    0 ROOT
