@<TRIPOS>MOLECULE
7KF
   50    53     1     0     0
SMALL
No Charge or Current Charge


@<TRIPOS>ATOM
      1 C4           0.3810     4.0710    -0.5410 ca         1 7KF      -0.088000
      2 C5           0.5950     2.6820    -0.5510 ca         1 7KF      -0.139000
      3 C6           1.7810     2.1390    -0.0180 ca         1 7KF       0.311000
      4 C8           1.3000    -0.3870    -0.0600 ca         1 7KF       0.489900
      5 C10         -0.7040    -1.4940    -0.1290 ca         1 7KF       0.437900
      6 C15         -3.9360     0.1090     1.8530 c6         1 7KF      -0.074400
      7 C17         -5.2230    -1.2900     0.1540 c6         1 7KF      -0.075400
      8 C22          1.1720    -2.7670    -0.0540 ca         1 7KF       0.188300
      9 C28          2.7550     3.0080     0.5030 ca         1 7KF      -0.162000
     10 C2           2.5480     4.4010     0.5190 ca         1 7KF      -0.047300
     11 C3           1.3550     4.9280    -0.0040 ca         1 7KF      -0.138000
     12 N7           2.0540     0.7680    -0.0080 nu         1 7KF      -0.923900
     13 N9          -0.0380    -0.3190    -0.1060 nb         1 7KF      -0.337000
     14 N11         -2.0870    -1.4580    -0.1900 nu         1 7KF      -0.892100
     15 C12         -2.9190    -0.2750    -0.4950 c6         1 7KF       0.254500
     16 C14         -3.0490     0.6880     0.7230 c6         1 7KF      -0.086400
     17 C16         -5.3350    -0.2770     1.3180 c6         1 7KF      -0.074400
     18 C18         -4.3390    -0.7460    -1.0030 c6         1 7KF       0.145500
     19 N20         -4.2510    -1.7790    -2.0770 n8         1 7KF      -1.012200
     20 N21         -0.1690    -2.7320    -0.1100 nb         1 7KF      -0.266000
     21 C23          2.0920    -3.9640    -0.0040 c5         1 7KF       0.041700
     22 N24          3.4350    -3.3410     0.0630 ns         1 7KF      -0.522900
     23 C25          3.3450    -1.9670     0.0570 c          1 7KF       0.613600
     24 O26          4.2800    -1.1880     0.1180 o          1 7KF      -0.585000
     25 C27          1.9260    -1.6190    -0.0230 ca         1 7KF      -0.426600
     26 H1          -0.5370     4.4830    -0.9550 ha         1 7KF       0.108000
     27 H2          -0.1600     2.0420    -0.9920 ha         1 7KF       0.145000
     28 H4          -4.0370     0.8460     2.6610 hc         1 7KF       0.047200
     29 H5          -4.8090    -2.2340     0.5330 hc         1 7KF       0.047200
     30 H6          -6.2290    -1.5220    -0.2220 hc         1 7KF       0.047200
     31 H7           3.6780     2.6010     0.9060 ha         1 7KF       0.117000
     32 H11          1.1840     6.0030    -0.0030 ha         1 7KF       0.112000
     33 H12          3.0390     0.5440     0.1440 hn         1 7KF       0.529000
     34 H13         -2.5090    -2.3470    -0.4590 hn         1 7KF       0.524000
     35 H14         -2.4500     0.2830    -1.3200 h1         1 7KF       0.055700
     36 H15         -3.4870     1.6340     0.3770 hc         1 7KF       0.056700
     37 H16         -2.0600     0.9480     1.1220 hc         1 7KF       0.056700
     38 H17         -5.9380    -0.7070     2.1290 hc         1 7KF       0.040700
     39 H18         -5.8650     0.6240     0.9780 hc         1 7KF       0.040700
     40 H19         -4.8470     0.1270    -1.4400 h1         1 7KF       0.027700
     41 H20         -5.1900    -1.9370    -2.4610 hn         1 7KF       0.402500
     42 H21         -3.7320    -1.3870    -2.8720 hn         1 7KF       0.402500
     43 H23          1.8780    -4.5820     0.8780 h1         1 7KF       0.072200
     44 H22          1.9690    -4.5860    -0.9010 h1         1 7KF       0.072200
     45 H24          4.3380    -3.7990     0.1220 hn         1 7KF       0.335500
     46 C1           3.6110     5.3270     1.0920 c3         1 7KF      -0.047800
     47 H3          -3.4500    -0.7720     2.2950 hc         1 7KF       0.047200
     48 H8           4.3430     5.6020     0.3240 hc         1 7KF       0.043033
     49 H9           3.1690     6.2520     1.4810 hc         1 7KF       0.043033
     50 H10          4.1530     4.8500     1.9170 hc         1 7KF       0.043033
@<TRIPOS>BOND
     1     1     2 ar  
     2     1    11 ar  
     3     1    26 1   
     4     2     3 ar  
     5     2    27 1   
     6     3     9 ar  
     7     3    12 1   
     8     4    12 1   
     9     4    13 ar  
    10     4    25 ar  
    11     5    13 ar  
    12     5    14 1   
    13     5    20 ar  
    14     6    16 1   
    15     6    17 1   
    16     6    28 1   
    17     6    47 1   
    18     7    17 1   
    19     7    18 1   
    20     7    29 1   
    21     7    30 1   
    22     8    20 ar  
    23     8    21 1   
    24     8    25 ar  
    25     9    10 ar  
    26     9    31 1   
    27    10    11 ar  
    28    10    46 1   
    29    11    32 1   
    30    12    33 1   
    31    14    15 1   
    32    14    34 1   
    33    15    16 1   
    34    15    18 1   
    35    15    35 1   
    36    16    36 1   
    37    16    37 1   
    38    17    38 1   
    39    17    39 1   
    40    18    19 1   
    41    18    40 1   
    42    19    41 1   
    43    19    42 1   
    44    21    22 1   
    45    21    43 1   
    46    21    44 1   
    47    22    23 1   
    48    22    45 1   
    49    23    24 2   
    50    23    25 1   
    51    46    48 1   
    52    46    49 1   
    53    46    50 1   
@<TRIPOS>SUBSTRUCTURE
     1 7KF         1 TEMP              0 ****  ****    0 ROOT
