@<TRIPOS>MOLECULE
7KF
   50    53     1     0     0
SMALL
abcg2


@<TRIPOS>ATOM
      1 C4           0.1680     3.9610    -0.1660 ca         1 7KF      -0.088000
      2 C5           0.3810     2.5880    -0.1560 ca         1 7KF      -0.139000
      3 C6           1.6580     2.1030     0.1240 ca         1 7KF       0.311000
      4 C8           1.2660    -0.3690     0.0600 ca         1 7KF       0.489900
      5 C10         -0.7280    -1.4700    -0.1830 ca         1 7KF       0.437900
      6 C15         -3.8010    -0.0410     1.8050 c6         1 7KF      -0.074400
      7 C17         -5.0610    -1.2460     0.0020 c6         1 7KF      -0.075400
      8 C22          1.0970    -2.7350     0.0080 ca         1 7KF       0.188300
      9 C28          2.6890     3.0120     0.3850 ca         1 7KF      -0.162000
     10 C2           2.4750     4.3830     0.3690 ca         1 7KF      -0.047300
     11 C3           1.1930     4.8560     0.0920 ca         1 7KF      -0.138000
     12 N7           2.0110     0.7530     0.1580 nu         1 7KF      -0.923900
     13 N9          -0.0490    -0.3190    -0.0940 nb         1 7KF      -0.337000
     14 N11         -2.0570    -1.4020    -0.3220 nu         1 7KF      -0.892100
     15 C12         -2.8190    -0.1850    -0.5310 c6         1 7KF       0.254500
     16 C14         -2.9590     0.6530     0.7410 c6         1 7KF      -0.086400
     17 C16         -5.1790    -0.3980     1.2620 c6         1 7KF      -0.074400
     18 C18         -4.2080    -0.5630    -1.0650 c6         1 7KF       0.145500
     19 N20         -4.0750    -1.4420    -2.2160 n8         1 7KF      -1.012200
     20 N21         -0.2070    -2.7170    -0.1460 nb         1 7KF      -0.266000
     21 C23          1.9580    -3.9590     0.0890 c5         1 7KF       0.041700
     22 N24          3.2750    -3.3850     0.2520 ns         1 7KF      -0.522900
     23 C25          3.2910    -2.0310     0.2830 c          1 7KF       0.613600
     24 O26          4.2760    -1.3130     0.4190 o          1 7KF      -0.585000
     25 C27          1.9010    -1.6210     0.1220 ca         1 7KF      -0.426600
     26 H1          -0.8260     4.3310    -0.3820 ha         1 7KF       0.108000
     27 H2          -0.4320     1.9110    -0.3550 ha         1 7KF       0.145000
     28 H4          -3.8910     0.6060     2.6810 hc         1 7KF       0.047200
     29 H5          -4.6340    -2.2230     0.2520 hc         1 7KF       0.047200
     30 H6          -6.0530    -1.4480    -0.4150 hc         1 7KF       0.047200
     31 H7           3.6820     2.6370     0.6110 ha         1 7KF       0.117000
     32 H11          1.0010     5.9220     0.0790 ha         1 7KF       0.112000
     33 H12          2.9980     0.5760     0.2950 hn         1 7KF       0.529000
     34 H13         -2.5040    -2.2670    -0.5890 hn         1 7KF       0.524000
     35 H14         -2.3130     0.4210    -1.2930 h1         1 7KF       0.055700
     36 H15         -3.4300     1.6010     0.4640 hc         1 7KF       0.056700
     37 H16         -1.9710     0.9030     1.1290 hc         1 7KF       0.056700
     38 H17         -5.7630    -0.9290     2.0160 hc         1 7KF       0.040700
     39 H18         -5.7290     0.5220     1.0330 hc         1 7KF       0.040700
     40 H19         -4.6950     0.3930    -1.3130 h1         1 7KF       0.027700
     41 H20         -4.9960    -1.6770    -2.5680 hn         1 7KF       0.402500
     42 H21         -3.6040    -0.9570    -2.9710 hn         1 7KF       0.402500
     43 H23          1.6760    -4.5900     0.9360 h1         1 7KF       0.072200
     44 H22          1.8810    -4.5630    -0.8190 h1         1 7KF       0.072200
     45 H24          4.1040    -3.9460     0.3630 hn         1 7KF       0.335500
     46 C1           3.6070     5.3350     0.6250 c3         1 7KF      -0.047800
     47 H3          -3.2910    -0.9490     2.1420 hc         1 7KF       0.047200
     48 H8           4.0100     5.7200    -0.3140 hc         1 7KF       0.043033
     49 H9           3.2800     6.1940     1.2110 hc         1 7KF       0.043033
     50 H10          4.4260     4.8530     1.1580 hc         1 7KF       0.043033
@<TRIPOS>BOND
     1     1     2 ar  
     2     1    11 ar  
     3     1    26 1   
     4     2     3 ar  
     5     2    27 1   
     6     3     9 ar  
     7     3    12 1   
     8     4    12 1   
     9     4    13 ar  
    10     4    25 ar  
    11     5    13 ar  
    12     5    14 1   
    13     5    20 ar  
    14     6    16 1   
    15     6    17 1   
    16     6    28 1   
    17     6    47 1   
    18     7    17 1   
    19     7    18 1   
    20     7    29 1   
    21     7    30 1   
    22     8    20 ar  
    23     8    21 1   
    24     8    25 ar  
    25     9    10 ar  
    26     9    31 1   
    27    10    11 ar  
    28    10    46 1   
    29    11    32 1   
    30    12    33 1   
    31    14    15 1   
    32    14    34 1   
    33    15    16 1   
    34    15    18 1   
    35    15    35 1   
    36    16    36 1   
    37    16    37 1   
    38    17    38 1   
    39    17    39 1   
    40    18    19 1   
    41    18    40 1   
    42    19    41 1   
    43    19    42 1   
    44    21    22 1   
    45    21    43 1   
    46    21    44 1   
    47    22    23 1   
    48    22    45 1   
    49    23    24 2   
    50    23    25 1   
    51    46    48 1   
    52    46    49 1   
    53    46    50 1   
@<TRIPOS>SUBSTRUCTURE
     1 7KF         1 TEMP              0 ****  ****    0 ROOT
