@<TRIPOS>MOLECULE
7KG
   46    49     1     0     0
SMALL
abcg2


@<TRIPOS>ATOM
      1 C4           2.2550    -0.9900    -0.1620 cc         1 7KG      -0.294500
      2 C5           3.5880    -1.1700    -0.5890 cc         1 7KG       0.296900
      3 C7           1.4020     0.1860    -0.0130 ca         1 7KG       0.586500
      4 C13         -2.4150    -1.7530    -0.7310 c6         1 7KG      -0.081400
      5 C15         -4.7920    -1.2580    -1.3570 c6         1 7KG      -0.073400
      6 C17         -4.0090    -0.9240     1.0230 c6         1 7KG       0.145500
      7 C20         -0.4750     2.1800     0.2740 ca         1 7KG       0.032000
      8 C22          0.8310     2.5150     0.1470 ca         1 7KG      -0.050300
      9 N2           2.8360    -3.1030    -0.1940 na         1 7KG       0.128800
     10 C3           1.8160    -2.2840     0.0760 cd         1 7KG      -0.116000
     11 N6           3.9210    -2.4450    -0.6050 nd         1 7KG      -0.537800
     12 N8           0.1060    -0.1140     0.1310 nb         1 7KG      -0.795000
     13 C9          -0.8310     0.8140     0.2690 ca         1 7KG       0.635900
     14 N10         -2.1220     0.4460     0.3850 nu         1 7KG      -0.901100
     15 C11         -2.5470    -0.9330     0.5540 c6         1 7KG       0.244500
     16 C14         -3.3430    -1.2560    -1.8310 c6         1 7KG      -0.072400
     17 C16         -4.9510    -0.4430    -0.0800 c6         1 7KG      -0.074400
     18 F21         -1.4330     3.1150     0.4110 f          1 7KG      -0.176000
     19 C23          1.4650     3.8670     0.1420 c5         1 7KG       0.151300
     20 N24          2.8560     3.5250    -0.0010 ns         1 7KG      -0.523900
     21 C25          3.1210     2.2000    -0.0740 c          1 7KG       0.602600
     22 O26          4.2390     1.7180    -0.1720 o          1 7KG      -0.558000
     23 C27          1.8080     1.5200    -0.0000 ca         1 7KG      -0.261600
     24 H1           4.3000    -0.4200    -0.8870 h4         1 7KG       0.069100
     25 H2          -1.3760    -1.7540    -1.0580 hc         1 7KG       0.053700
     26 H3          -2.6660    -2.7910    -0.4870 hc         1 7KG       0.053700
     27 H4          -5.4510    -0.8640    -2.1350 hc         1 7KG       0.039700
     28 H5          -5.1100    -2.2900    -1.1740 hc         1 7KG       0.039700
     29 H6          -4.2590    -1.9740     1.2400 h1         1 7KG       0.027700
     30 H7           3.1220    -4.9960    -1.0220 h1         1 7KG       0.055700
     31 H8           3.5990    -4.8390     0.6790 h1         1 7KG       0.055700
     32 H9           1.8850    -4.8880     0.2390 h1         1 7KG       0.055700
     33 H10          0.8620    -2.6500     0.4170 h4         1 7KG       0.161000
     34 H11         -2.7500     1.1200     0.8000 hn         1 7KG       0.517000
     35 H12         -1.9340    -1.4090     1.3320 h1         1 7KG       0.047700
     36 H13         -3.0550    -0.2430    -2.1270 hc         1 7KG       0.047700
     37 H14         -3.2340    -1.8850    -2.7170 hc         1 7KG       0.047700
     38 H15         -4.7590     0.6140    -0.2910 hc         1 7KG       0.047200
     39 H16         -5.9820    -0.5030     0.2820 hc         1 7KG       0.047200
     40 H20          1.1050     4.4820    -0.6870 h1         1 7KG       0.064700
     41 H19          1.2700     4.4120     1.0690 h1         1 7KG       0.064700
     42 H21          3.5850     4.2190    -0.0170 hn         1 7KG       0.332500
     43 C1           2.8660    -4.5400    -0.0680 c3         1 7KG       0.072900
     44 N19         -4.1430    -0.0600     2.1860 n8         1 7KG      -1.019200
     45 H17         -5.1130    -0.0250     2.4760 hn         1 7KG       0.404000
     46 H18         -3.6290    -0.4470     2.9680 hn         1 7KG       0.404000
@<TRIPOS>BOND
     1     1     2 1   
     2     1     3 1   
     3     1    10 2   
     4     2    11 2   
     5     2    24 1   
     6     3    12 ar  
     7     3    23 ar  
     8     4    15 1   
     9     4    16 1   
    10     4    25 1   
    11     4    26 1   
    12     5    16 1   
    13     5    17 1   
    14     5    27 1   
    15     5    28 1   
    16     6    15 1   
    17     6    17 1   
    18     6    29 1   
    19     6    44 1   
    20     7     8 ar  
    21     7    13 ar  
    22     7    18 1   
    23     8    19 1   
    24     8    23 ar  
    25     9    10 1   
    26     9    11 1   
    27     9    43 1   
    28    10    33 1   
    29    12    13 ar  
    30    13    14 1   
    31    14    15 1   
    32    14    34 1   
    33    15    35 1   
    34    16    36 1   
    35    16    37 1   
    36    17    38 1   
    37    17    39 1   
    38    19    20 1   
    39    19    40 1   
    40    19    41 1   
    41    20    21 1   
    42    20    42 1   
    43    21    22 2   
    44    21    23 1   
    45    30    43 1   
    46    31    43 1   
    47    32    43 1   
    48    44    45 1   
    49    44    46 1   
@<TRIPOS>SUBSTRUCTURE
     1 7KG         1 TEMP              0 ****  ****    0 ROOT
