@<TRIPOS>MOLECULE
7KG
   46    49     1     0     0
SMALL
No Charge or Current Charge


@<TRIPOS>ATOM
      1 C4           2.3260    -0.9790    -0.2230 cc         1 7KG      -0.294500
      2 C5           3.6100    -1.0590    -0.7800 cc         1 7KG       0.296900
      3 C7           1.4310     0.1620    -0.0010 ca         1 7KG       0.586500
      4 C13         -2.5750    -1.9040    -0.6990 c6         1 7KG      -0.081400
      5 C15         -5.0480    -1.5470    -1.2170 c6         1 7KG      -0.073400
      6 C17         -4.0940    -0.6810     1.0050 c6         1 7KG       0.145500
      7 C20         -0.4350     2.2300     0.1860 ca         1 7KG       0.032000
      8 C22          0.9260     2.5290     0.2280 ca         1 7KG      -0.050300
      9 N2           3.0360    -3.0450    -0.3370 na         1 7KG       0.128800
     10 C3           1.9410    -2.2650     0.0430 cd         1 7KG      -0.116000
     11 N6           4.0780    -2.2900    -0.8600 nd         1 7KG      -0.537800
     12 N8           0.1070    -0.1340    -0.0330 nb         1 7KG      -0.795000
     13 C9          -0.7900     0.8640     0.0600 ca         1 7KG       0.635900
     14 N10         -2.1150     0.4680     0.0260 nu         1 7KG      -0.901100
     15 C11         -2.6270    -0.8520     0.4480 c6         1 7KG       0.244500
     16 C14         -3.6220    -1.6340    -1.8090 c6         1 7KG      -0.072400
     17 C16         -5.1290    -0.4480    -0.1310 c6         1 7KG      -0.074400
     18 F21         -1.3670     3.2120     0.2820 f          1 7KG      -0.176000
     19 C23          1.6200     3.8550     0.3900 c5         1 7KG       0.151300
     20 N24          3.0380     3.4630     0.4250 ns         1 7KG      -0.523900
     21 C25          3.1910     2.0960     0.3240 c          1 7KG       0.602600
     22 O26          4.2580     1.5240     0.4450 o          1 7KG      -0.558000
     23 C27          1.8480     1.5010     0.1440 ca         1 7KG      -0.261600
     24 H1           4.2160    -0.2580    -1.1800 h4         1 7KG       0.069100
     25 H2          -1.5710    -1.9500    -1.1380 hc         1 7KG       0.053700
     26 H3          -2.7600    -2.8990    -0.2710 hc         1 7KG       0.053700
     27 H4          -5.7700    -1.3330    -2.0170 hc         1 7KG       0.039700
     28 H5          -5.3340    -2.5170    -0.7880 hc         1 7KG       0.039700
     29 H6          -4.3670    -1.6070     1.5330 h1         1 7KG       0.027700
     30 H7           3.2150    -4.9340    -1.2520 h1         1 7KG       0.055700
     31 H8           4.0300    -4.7780     0.3350 h1         1 7KG       0.055700
     32 H9           2.2490    -4.9110     0.2530 h1         1 7KG       0.055700
     33 H10          1.0240    -2.6760     0.4520 h4         1 7KG       0.161000
     34 H11         -2.7380     1.2320     0.2820 hn         1 7KG       0.517000
     35 H12         -2.0090    -1.2220     1.2800 h1         1 7KG       0.047700
     36 H13         -3.3780    -0.7000    -2.3340 hc         1 7KG       0.047700
     37 H14         -3.5800    -2.4340    -2.5620 hc         1 7KG       0.047700
     38 H15         -4.9660     0.5340    -0.5960 hc         1 7KG       0.047200
     39 H16         -6.1450    -0.4270     0.2880 hc         1 7KG       0.047200
     40 H20          1.3970     4.5220    -0.4530 h1         1 7KG       0.064700
     41 H19          1.3060     4.3520     1.3180 h1         1 7KG       0.064700
     42 H21          3.8390     4.0540     0.6120 hn         1 7KG       0.332500
     43 C1           3.1390    -4.5080    -0.2440 c3         1 7KG       0.072900
     44 N19         -4.1990     0.4330     1.9930 n8         1 7KG      -1.019200
     45 H17         -5.1450     0.4310     2.3920 hn         1 7KG       0.404000
     46 H18         -3.6030     0.2150     2.8010 hn         1 7KG       0.404000
@<TRIPOS>BOND
     1     1     2 1   
     2     1     3 1   
     3     1    10 2   
     4     2    11 2   
     5     2    24 1   
     6     3    12 ar  
     7     3    23 ar  
     8     4    15 1   
     9     4    16 1   
    10     4    25 1   
    11     4    26 1   
    12     5    16 1   
    13     5    17 1   
    14     5    27 1   
    15     5    28 1   
    16     6    15 1   
    17     6    17 1   
    18     6    29 1   
    19     6    44 1   
    20     7     8 ar  
    21     7    13 ar  
    22     7    18 1   
    23     8    19 1   
    24     8    23 ar  
    25     9    10 1   
    26     9    11 1   
    27     9    43 1   
    28    10    33 1   
    29    12    13 ar  
    30    13    14 1   
    31    14    15 1   
    32    14    34 1   
    33    15    35 1   
    34    16    36 1   
    35    16    37 1   
    36    17    38 1   
    37    17    39 1   
    38    19    20 1   
    39    19    40 1   
    40    19    41 1   
    41    20    21 1   
    42    20    42 1   
    43    21    22 2   
    44    21    23 1   
    45    30    43 1   
    46    31    43 1   
    47    32    43 1   
    48    44    45 1   
    49    44    46 1   
@<TRIPOS>SUBSTRUCTURE
     1 7KG         1 TEMP              0 ****  ****    0 ROOT
