@<TRIPOS>MOLECULE
7KH
   56    60     1     0     0
SMALL
bcc


@<TRIPOS>ATOM
      1 C5          -4.7320    -1.5040     0.0260 c6         1 7KH       0.187300
      2 C1          -2.9180    -2.3300     1.4290 c6         1 7KH       0.187300
      3 C14          0.6070     3.7500     1.1440 c5         1 7KH      -0.083400
      4 C9           2.2110    -0.4500     1.0950 cc         1 7KH       0.034400
      5 C4          -4.9930    -2.9420    -0.3830 c6         1 7KH       0.115900
      6 C13          0.8270     4.6270    -0.0930 c5         1 7KH      -0.076400
      7 C2          -3.2680    -3.7280     0.9550 c6         1 7KH       0.115900
      8 C18         -0.7780     1.0070     0.4980 ca         1 7KH       0.975900
      9 N16          0.4220     1.2000     1.0700 nh         1 7KH      -0.756300
     10 O3          -4.6360    -3.8490     0.6370 os         1 7KH      -0.402600
     11 N6          -3.3500    -1.3550     0.4450 nh         1 7KH      -0.767300
     12 N7          -4.0590     2.7360    -2.2910 n2         1 7KH      -0.696100
     13 C10          1.0600     0.1430     1.8380 c3         1 7KH       0.304000
     14 C11          1.7720     2.4980    -0.6390 c5         1 7KH      -0.083400
     15 C12          2.0260     3.9930    -0.7990 c5         1 7KH      -0.076400
     16 C15          1.2410     2.3770     0.7990 c5         1 7KH       0.248500
     17 N17         -1.4520    -0.1080     0.7720 nb         1 7KH      -0.874000
     18 N19         -1.2460     1.9780    -0.3080 nb         1 7KH      -0.836000
     19 C20         -2.4360     1.7410    -0.8240 ca         1 7KH       0.683700
     20 N21         -3.1890     0.6760    -0.6270 nb         1 7KH      -0.798000
     21 C22         -2.6430    -0.2340     0.1950 ca         1 7KH       0.962900
     22 N23          2.0430    -1.0900    -0.0880 nc         1 7KH      -0.270600
     23 C24          3.2540    -1.4430    -0.4760 cd         1 7KH      -0.031300
     24 N25          4.2060    -1.0400     0.4470 na         1 7KH       0.031700
     25 C26          3.5330    -0.4010     1.4540 cd         1 7KH      -0.228100
     26 C27          5.5380    -1.2810     0.2810 cc         1 7KH      -0.079300
     27 C28          5.9580    -1.9400    -0.8270 cd         1 7KH      -0.157000
     28 C29          5.0180    -2.3740    -1.7990 cc         1 7KH      -0.125000
     29 C30          3.6870    -2.1310    -1.6290 cd         1 7KH      -0.087000
     30 H1          -4.9390    -0.8410    -0.8090 h1         1 7KH       0.068700
     31 H2          -5.4000    -1.2240     0.8500 h1         1 7KH       0.068700
     32 H3          -2.2490     3.6570    -1.8210 h4         1 7KH      -0.014200
     33 H4          -3.4030    -2.1250     2.3910 h1         1 7KH       0.068700
     34 H5          -1.8440    -2.2540     1.5770 h1         1 7KH       0.068700
     35 H6           1.1250     4.1730     2.0070 hc         1 7KH       0.053700
     36 H7          -0.4450     3.6710     1.4110 hc         1 7KH       0.053700
     37 H8          -6.0560    -3.0770    -0.5860 h1         1 7KH       0.054200
     38 H9          -4.4400    -3.1670    -1.3060 h1         1 7KH       0.054200
     39 H10         -0.0480     4.5720    -0.7450 hc         1 7KH       0.041700
     40 H11          0.9860     5.6770     0.1570 hc         1 7KH       0.041700
     41 H12         -2.6480    -3.9840     0.0850 h1         1 7KH       0.054200
     42 H13         -3.0500    -4.4470     1.7460 h1         1 7KH       0.054200
     43 H14         -4.2210     3.5640    -2.8580 hn         1 7KH       0.375400
     44 H15          0.3190    -0.6220     2.0580 h1         1 7KH       0.075200
     45 H16          1.4060     0.5530     2.7890 h1         1 7KH       0.075200
     46 H17          1.0100     2.1750    -1.3490 hc         1 7KH       0.053700
     47 H18          2.6570     1.8800    -0.7970 hc         1 7KH       0.053700
     48 H19          2.1220     4.2970    -1.8430 hc         1 7KH       0.041700
     49 H20          2.9540     4.2770    -0.2930 hc         1 7KH       0.041700
     50 H21          2.1070     2.2550     1.4530 h1         1 7KH       0.042700
     51 H22          4.0350     0.0260     2.3060 h4         1 7KH       0.181000
     52 H23          6.1980    -0.9230     1.0570 h4         1 7KH       0.161000
     53 H24          7.0130    -2.1280    -0.9600 ha         1 7KH       0.149000
     54 H25          5.3660    -2.8980    -2.6780 ha         1 7KH       0.143000
     55 H26          2.9490    -2.4480    -2.3530 ha         1 7KH       0.163000
     56 C8          -2.9380     2.8170    -1.7180 ce         1 7KH       0.357200
@<TRIPOS>BOND
     1     1     5 1   
     2     1    11 1   
     3     1    30 1   
     4     1    31 1   
     5     2     7 1   
     6     2    11 1   
     7     2    33 1   
     8     2    34 1   
     9     3     6 1   
    10     3    16 1   
    11     3    35 1   
    12     3    36 1   
    13     4    13 1   
    14     4    22 1   
    15     4    25 2   
    16     5    10 1   
    17     5    37 1   
    18     5    38 1   
    19     6    15 1   
    20     6    39 1   
    21     6    40 1   
    22     7    10 1   
    23     7    41 1   
    24     7    42 1   
    25     8     9 1   
    26     8    17 ar  
    27     8    18 ar  
    28     9    13 1   
    29     9    16 1   
    30    11    21 1   
    31    12    43 1   
    32    12    56 2   
    33    13    44 1   
    34    13    45 1   
    35    14    15 1   
    36    14    16 1   
    37    14    46 1   
    38    14    47 1   
    39    15    48 1   
    40    15    49 1   
    41    16    50 1   
    42    17    21 ar  
    43    18    19 ar  
    44    19    20 ar  
    45    19    56 1   
    46    20    21 ar  
    47    22    23 2   
    48    23    24 1   
    49    23    29 1   
    50    24    25 1   
    51    24    26 1   
    52    25    51 1   
    53    26    27 2   
    54    26    52 1   
    55    27    28 1   
    56    27    53 1   
    57    28    29 2   
    58    28    54 1   
    59    29    55 1   
    60    32    56 1   
@<TRIPOS>SUBSTRUCTURE
     1 7KH         1 TEMP              0 ****  ****    0 ROOT
