@<TRIPOS>MOLECULE
7KH
   56    60     1     0     0
SMALL
No Charge or Current Charge


@<TRIPOS>ATOM
      1 C5          -3.5640    -1.8910    -0.8290 c6         1 7KH       0.187300
      2 C1          -1.2160    -2.4700    -0.0610 c6         1 7KH       0.187300
      3 C14          0.7600     4.3980     1.5560 c5         1 7KH      -0.083400
      4 C9           1.9170    -0.3260     1.5280 cc         1 7KH       0.034400
      5 C4          -3.5740    -3.2530    -1.5860 c6         1 7KH       0.139100
      6 C13          0.6000     5.3600     0.3370 c5         1 7KH      -0.076400
      7 C2          -1.3550    -3.8010    -0.8560 c6         1 7KH       0.139100
      8 C18         -0.5360     1.5680     0.6080 ca         1 7KH       0.449900
      9 N16          0.6980     1.8970     1.2380 nh         1 7KH      -0.756300
     10 O3          -2.7350    -4.2240    -0.9220 os         1 7KH      -0.449000
     11 N6          -2.1730    -1.3970    -0.5240 nh         1 7KH      -0.767300
     12 N7          -4.6720     3.0240    -1.2310 n2         1 7KH      -0.696100
     13 C10          1.3000     0.9010     2.1740 c3         1 7KH       0.304000
     14 C11          1.5950     3.4000    -0.5730 c5         1 7KH      -0.083400
     15 C12          1.7720     4.9380    -0.5880 c5         1 7KH      -0.076400
     16 C15          1.4900     3.1450     0.9630 c5         1 7KH       0.248500
     17 N17         -0.7650     0.2680     0.3650 nb         1 7KH      -0.348000
     18 N19         -1.4000     2.5540     0.2970 nb         1 7KH      -0.310000
     19 C20         -2.5500     2.1690    -0.3000 ca         1 7KH       0.157700
     20 N21         -2.8540     0.8810    -0.5880 nb         1 7KH      -0.272000
     21 C22         -1.9250    -0.0290    -0.2370 ca         1 7KH       0.436900
     22 N23          1.7950    -1.5640     2.1150 nc         1 7KH      -0.270600
     23 C24          2.3730    -2.3950     1.2710 cd         1 7KH      -0.082000
     24 N25          2.8660    -1.7340     0.1730 na         1 7KH       0.133100
     25 C26          2.5880    -0.3960     0.3240 cd         1 7KH      -0.278100
     26 C27          3.5090    -2.3300    -0.9100 cc         1 7KH      -0.112000
     27 C28          3.6150    -3.7160    -0.7680 cd         1 7KH      -0.139000
     28 C29          3.1330    -4.4240     0.3270 cc         1 7KH      -0.107000
     29 C30          2.4960    -3.8100     1.3870 cd         1 7KH      -0.069000
     30 H1          -4.1130    -1.1690    -1.4510 h1         1 7KH       0.068700
     31 H2          -4.1310    -2.0070     0.1060 h1         1 7KH       0.068700
     32 H3          -3.2360     4.2760    -0.4110 h4         1 7KH      -0.014200
     33 H4          -1.3750    -2.6790     1.0070 h1         1 7KH       0.068700
     34 H5          -0.1720    -2.1400    -0.1720 h1         1 7KH       0.068700
     35 H6           1.3840     4.8570     2.3310 hc         1 7KH       0.053700
     36 H7          -0.1990     4.1740     2.0340 hc         1 7KH       0.053700
     37 H8          -4.6010    -3.6400    -1.6400 h1         1 7KH       0.054200
     38 H9          -3.2130    -3.1080    -2.6150 h1         1 7KH       0.054200
     39 H10         -0.3670     5.2180    -0.1590 hc         1 7KH       0.041700
     40 H11          0.6590     6.4140     0.6310 hc         1 7KH       0.041700
     41 H12         -0.9700    -3.6650    -1.8770 h1         1 7KH       0.054200
     42 H13         -0.7580    -4.5860    -0.3710 h1         1 7KH       0.054200
     43 H14         -5.1680     3.9150    -1.3760 hn         1 7KH       0.375400
     44 H15          0.5300     0.5690     2.8840 h1         1 7KH       0.075200
     45 H16          2.0750     1.3820     2.7860 h1         1 7KH       0.075200
     46 H17          0.7100     3.1070    -1.1460 hc         1 7KH       0.053700
     47 H18          2.4490     2.8780    -1.0170 hc         1 7KH       0.053700
     48 H19          1.6810     5.3600    -1.5960 hc         1 7KH       0.041700
     49 H20          2.7450     5.2450    -0.1850 hc         1 7KH       0.041700
     50 H21          2.5030     3.0760     1.3880 h1         1 7KH       0.042700
     51 H22          2.8380     0.3640    -0.4050 h4         1 7KH       0.231000
     52 H23          3.8570    -1.7180    -1.7310 h4         1 7KH       0.143000
     53 H24          4.1030    -4.2730    -1.5630 ha         1 7KH       0.131000
     54 H25          3.2600    -5.5020     0.3510 ha         1 7KH       0.125000
     55 H26          2.1150    -4.3630     2.2390 ha         1 7KH       0.145000
     56 C8          -3.5290     3.2530    -0.6580 ce         1 7KH       0.357200
@<TRIPOS>BOND
     1     1     5 1   
     2     1    11 1   
     3     1    30 1   
     4     1    31 1   
     5     2     7 1   
     6     2    11 1   
     7     2    33 1   
     8     2    34 1   
     9     3     6 1   
    10     3    16 1   
    11     3    35 1   
    12     3    36 1   
    13     4    13 1   
    14     4    22 1   
    15     4    25 2   
    16     5    10 1   
    17     5    37 1   
    18     5    38 1   
    19     6    15 1   
    20     6    39 1   
    21     6    40 1   
    22     7    10 1   
    23     7    41 1   
    24     7    42 1   
    25     8     9 1   
    26     8    17 ar  
    27     8    18 ar  
    28     9    13 1   
    29     9    16 1   
    30    11    21 1   
    31    12    43 1   
    32    12    56 2   
    33    13    44 1   
    34    13    45 1   
    35    14    15 1   
    36    14    16 1   
    37    14    46 1   
    38    14    47 1   
    39    15    48 1   
    40    15    49 1   
    41    16    50 1   
    42    17    21 ar  
    43    18    19 ar  
    44    19    20 ar  
    45    19    56 1   
    46    20    21 ar  
    47    22    23 2   
    48    23    24 1   
    49    23    29 1   
    50    24    25 1   
    51    24    26 1   
    52    25    51 1   
    53    26    27 2   
    54    26    52 1   
    55    27    28 1   
    56    27    53 1   
    57    28    29 2   
    58    28    54 1   
    59    29    55 1   
    60    32    56 1   
@<TRIPOS>SUBSTRUCTURE
     1 7KH         1 TEMP              0 ****  ****    0 ROOT
