@<TRIPOS>MOLECULE
7KJ
   64    69     1     0     0
SMALL
abcg2


@<TRIPOS>ATOM
      1 C01         -7.7310     1.7670     0.4600 ca         1 7KJ      -0.068000
      2 C02         -8.3290     1.1900     1.5500 ca         1 7KJ      -0.125000
      3 C03         -7.7180     0.1010     2.1930 ca         1 7KJ      -0.088000
      4 C04         -6.5210    -0.3870     1.7390 ca         1 7KJ      -0.122000
      5 C05         -5.8710     0.1840     0.6190 ca         1 7KJ       0.008000
      6 C06         -6.4970     1.2810    -0.0300 ca         1 7KJ      -0.056000
      7 C07         -4.6250    -0.3130     0.1360 ca         1 7KJ      -0.133300
      8 C08         -4.0650     0.2790    -0.9600 ca         1 7KJ      -0.047000
      9 C09         -4.6720     1.3680    -1.6190 ca         1 7KJ      -0.217000
     10 C10         -5.8650     1.8680    -1.1690 ca         1 7KJ       0.165100
     11 C11         -3.9870    -1.4840     0.8420 c3         1 7KJ       0.143300
     12 C12         -2.5300    -2.7880    -0.5860 cc         1 7KJ       0.502800
     13 C16         -1.5730    -1.0650     0.8260 c          1 7KJ       0.590600
     14 C17         -0.3210    -1.4690     0.2430 cc         1 7KJ      -0.236600
     15 C18         -0.3310    -2.4800    -0.6980 cd         1 7KJ       0.068400
     16 C20          0.9900    -0.9500     0.4950 cc         1 7KJ      -0.026300
     17 C21          1.9280    -1.5710    -0.2680 cd         1 7KJ      -0.225300
     18 C23          3.3900    -1.2670    -0.2710 c6         1 7KJ      -0.036100
     19 C24          3.6500     0.0960     0.3910 c6         1 7KJ       0.180500
     20 C25          2.8600     0.1980     1.6910 c6         1 7KJ      -0.071400
     21 C26          1.3540     0.1400     1.4570 c6         1 7KJ      -0.014100
     22 C29          7.2530     0.9590    -0.1760 cc         1 7KJ      -0.240300
     23 C30          8.4850     0.3150    -0.4760 cc         1 7KJ       0.282300
     24 C33          7.6300     2.0380     0.5560 cd         1 7KJ       0.219300
     25 C34          6.8670     3.1350     1.1920 c3         1 7KJ      -0.138400
     26 C35          8.6910    -0.9320    -1.2610 c3         1 7KJ      -0.133400
     27 N15         -2.6600    -1.8080     0.3430 n          1 7KJ      -0.328300
     28 N19         -1.4190    -3.1570    -1.1250 nd         1 7KJ      -0.599100
     29 N27          5.0490     0.3750     0.6410 n7         1 7KJ      -0.878400
     30 N31          9.4920     0.9640     0.0350 nd         1 7KJ      -0.368300
     31 O13         -6.5200     2.8990    -1.7260 os         1 7KJ      -0.340100
     32 O32          8.9600     2.0430     0.6820 os         1 7KJ      -0.076700
     33 S22          1.2510    -2.7990    -1.2930 ss         1 7KJ       0.257000
     34 H011        -8.2130     2.6010    -0.0290 ha         1 7KJ       0.127000
     35 H021        -9.2730     1.5720     1.9130 ha         1 7KJ       0.115000
     36 H031        -8.1950    -0.3550     3.0510 ha         1 7KJ       0.113000
     37 H041        -6.0750    -1.2280     2.2540 ha         1 7KJ       0.110000
     38 H081        -3.1230    -0.0700    -1.3610 ha         1 7KJ       0.113000
     39 H091        -4.1670     1.7880    -2.4780 ha         1 7KJ       0.120000
     40 H111        -3.9030    -1.2920     1.9110 h1         1 7KJ       0.070700
     41 H112        -4.6060    -2.3770     0.7340 h1         1 7KJ       0.070700
     42 H121        -3.4490    -3.2830    -0.8750 h5         1 7KJ       0.052800
     43 H143        -4.9740     3.9750    -2.6150 h1         1 7KJ       0.043367
     44 H141        -5.8270     2.8450    -3.6900 h1         1 7KJ       0.043367
     45 H142        -6.6310     4.3280    -3.1400 h1         1 7KJ       0.043367
     46 H232         3.9360    -2.0450     0.2750 hc         1 7KJ       0.050700
     47 H231         3.7750    -1.2770    -1.2940 hc         1 7KJ       0.050700
     48 H241         3.2860     0.8750    -0.2900 h1         1 7KJ       0.062700
     49 H252         3.1600    -0.6180     2.3590 hc         1 7KJ       0.051200
     50 H251         3.1180     1.1310     2.1930 hc         1 7KJ       0.051200
     51 H262         0.9980     1.0990     1.0680 hc         1 7KJ       0.067700
     52 H261         0.8350    -0.0090     2.4050 hc         1 7KJ       0.067700
     53 H282         5.4010     1.2940    -1.1760 h1         1 7KJ       0.036700
     54 H281         5.9330    -0.3700    -1.1710 h1         1 7KJ       0.036700
     55 H341         7.0240     3.1510     2.2720 hc         1 7KJ       0.066033
     56 H343         7.1680     4.1070     0.7980 hc         1 7KJ       0.066033
     57 H342         5.8060     2.9960     1.0090 hc         1 7KJ       0.066033
     58 H352         8.3610    -0.8000    -2.2910 hc         1 7KJ       0.054700
     59 H351         9.7410    -1.2180    -1.2730 hc         1 7KJ       0.054700
     60 H353         8.1160    -1.7550    -0.8370 hc         1 7KJ       0.054700
     61 H272         5.4460    -0.3440     1.2360 hn         1 7KJ       0.417000
     62 O36         -1.7420    -0.1820     1.6470 o          1 7KJ      -0.524000
     63 C14         -5.9460     3.5350    -2.8500 c3         1 7KJ       0.147900
     64 C28          5.8710     0.5320    -0.5470 c3         1 7KJ       0.251100
@<TRIPOS>BOND
     1     1     2 ar  
     2     1     6 ar  
     3     1    34 1   
     4     2     3 ar  
     5     2    35 1   
     6     3     4 ar  
     7     3    36 1   
     8     4     5 ar  
     9     4    37 1   
    10     5     6 ar  
    11     5     7 ar  
    12     6    10 ar  
    13     7     8 ar  
    14     7    11 1   
    15     8     9 ar  
    16     8    38 1   
    17     9    10 ar  
    18     9    39 1   
    19    10    31 1   
    20    11    27 1   
    21    11    40 1   
    22    11    41 1   
    23    12    27 1   
    24    12    28 2   
    25    12    42 1   
    26    13    14 1   
    27    13    27 1   
    28    13    62 2   
    29    14    15 2   
    30    14    16 1   
    31    15    28 1   
    32    15    33 1   
    33    16    17 2   
    34    16    21 1   
    35    17    18 1   
    36    17    33 1   
    37    18    19 1   
    38    18    46 1   
    39    18    47 1   
    40    19    20 1   
    41    19    29 1   
    42    19    48 1   
    43    20    21 1   
    44    20    49 1   
    45    20    50 1   
    46    21    51 1   
    47    21    52 1   
    48    22    23 1   
    49    22    24 2   
    50    22    64 1   
    51    23    26 1   
    52    23    30 2   
    53    24    25 1   
    54    24    32 1   
    55    25    55 1   
    56    25    56 1   
    57    25    57 1   
    58    26    58 1   
    59    26    59 1   
    60    26    60 1   
    61    29    61 1   
    62    29    64 1   
    63    30    32 1   
    64    31    63 1   
    65    43    63 1   
    66    44    63 1   
    67    45    63 1   
    68    53    64 1   
    69    54    64 1   
@<TRIPOS>SUBSTRUCTURE
     1 7KJ         1 TEMP              0 ****  ****    0 ROOT
