@<TRIPOS>MOLECULE
7KJ
   64    69     1     0     0
SMALL
No Charge or Current Charge


@<TRIPOS>ATOM
      1 C01         -7.9980     1.5310     0.5130 ca         1 7KJ      -0.068000
      2 C02         -8.5770     0.8470     1.5920 ca         1 7KJ      -0.125000
      3 C03         -7.8790    -0.1950     2.2150 ca         1 7KJ      -0.088000
      4 C04         -6.6010    -0.5550     1.7610 ca         1 7KJ      -0.122000
      5 C05         -5.9980     0.1230     0.6720 ca         1 7KJ       0.008000
      6 C06         -6.7100     1.1800     0.0450 ca         1 7KJ      -0.056000
      7 C07         -4.7040    -0.2370     0.2060 ca         1 7KJ      -0.133300
      8 C08         -4.1480     0.4740    -0.8800 ca         1 7KJ      -0.047000
      9 C09         -4.8520     1.5160    -1.4970 ca         1 7KJ      -0.217000
     10 C10         -6.1350     1.8770    -1.0430 ca         1 7KJ       0.165100
     11 C11         -3.9200    -1.3810     0.8710 c3         1 7KJ       0.143300
     12 C12         -2.5200    -2.6410    -0.7390 cc         1 7KJ       0.502800
     13 C16         -1.4660    -1.0460     0.7440 c          1 7KJ       0.590600
     14 C17         -0.2330    -1.4670     0.0570 cc         1 7KJ      -0.236600
     15 C18         -0.2390    -2.4000    -0.9480 cd         1 7KJ       0.068400
     16 C20          1.0910    -0.9750     0.3180 cc         1 7KJ      -0.026300
     17 C21          2.0470    -1.5230    -0.5070 cd         1 7KJ      -0.225300
     18 C23          3.5160    -1.1590    -0.4690 c6         1 7KJ      -0.036100
     19 C24          3.7460     0.1790     0.2900 c6         1 7KJ       0.180500
     20 C25          2.9470     0.1770     1.6160 c6         1 7KJ      -0.071400
     21 C26          1.4180     0.0680     1.3710 c6         1 7KJ      -0.014100
     22 C29          7.4380     0.9670    -0.0750 cc         1 7KJ      -0.240300
     23 C30          8.5000     0.0400    -0.0090 cc         1 7KJ       0.282300
     24 C33          7.9770     2.1140     0.4100 cd         1 7KJ       0.219300
     25 C34          7.3680     3.4740     0.5970 c3         1 7KJ      -0.138400
     26 C35          8.3720    -1.3930    -0.4470 c3         1 7KJ      -0.133400
     27 N15         -2.6020    -1.7030     0.2770 n          1 7KJ      -0.328300
     28 N19         -1.4090    -3.0200    -1.3750 nd         1 7KJ      -0.599100
     29 N27          5.1790     0.4200     0.5640 n7         1 7KJ      -0.878400
     30 N31          9.6230     0.5440     0.4740 nd         1 7KJ      -0.368300
     31 O13         -6.8490     2.9040    -1.6380 os         1 7KJ      -0.340100
     32 O32          9.2880     1.9130     0.7530 os         1 7KJ      -0.076700
     33 S22          1.3690    -2.7130    -1.6310 ss         1 7KJ       0.257000
     34 H011        -8.5590     2.3370     0.0460 ha         1 7KJ       0.127000
     35 H021        -9.5680     1.1260     1.9440 ha         1 7KJ       0.115000
     36 H031        -8.3280    -0.7250     3.0520 ha         1 7KJ       0.113000
     37 H041        -6.0950    -1.3680     2.2730 ha         1 7KJ       0.110000
     38 H081        -3.1600     0.2310    -1.2630 ha         1 7KJ       0.113000
     39 H091        -4.3810     2.0310    -2.3280 ha         1 7KJ       0.120000
     40 H111        -3.7850    -1.1450     1.9350 h1         1 7KJ       0.070700
     41 H112        -4.5370    -2.2890     0.8350 h1         1 7KJ       0.070700
     42 H121        -3.4710    -3.0770    -1.0190 h5         1 7KJ       0.052800
     43 H143        -5.4080     4.1790    -2.4730 h1         1 7KJ       0.043367
     44 H141        -6.1380     3.0120    -3.6080 h1         1 7KJ       0.043367
     45 H142        -7.0660     4.4220    -3.0580 h1         1 7KJ       0.043367
     46 H232         4.0790    -1.9650     0.0200 hc         1 7KJ       0.050700
     47 H231         3.9110    -1.0810    -1.4910 hc         1 7KJ       0.050700
     48 H241         3.3610     1.0030    -0.3310 h1         1 7KJ       0.062700
     49 H252         3.2760    -0.6640     2.2410 hc         1 7KJ       0.051200
     50 H251         3.1600     1.0910     2.1880 hc         1 7KJ       0.051200
     51 H262         1.0300     1.0470     1.0580 hc         1 7KJ       0.067700
     52 H261         0.9340    -0.1670     2.3280 hc         1 7KJ       0.067700
     53 H282         5.6980     1.5830    -1.1310 h1         1 7KJ       0.036700
     54 H281         6.0730    -0.1430    -1.2840 h1         1 7KJ       0.036700
     55 H341         6.3700     3.3950     1.0440 hc         1 7KJ       0.066033
     56 H343         7.9840     4.0980     1.2550 hc         1 7KJ       0.066033
     57 H342         7.2680     3.9900    -0.3650 hc         1 7KJ       0.066033
     58 H352         8.1990    -1.4540    -1.5280 hc         1 7KJ       0.054700
     59 H351         9.2810    -1.9620    -0.2190 hc         1 7KJ       0.054700
     60 H353         7.5340    -1.8830     0.0620 hc         1 7KJ       0.054700
     61 H272         5.5610    -0.3880     1.0660 hn         1 7KJ       0.417000
     62 O36         -1.5180    -0.2030     1.6300 o          1 7KJ      -0.524000
     63 C14         -6.3360     3.6640    -2.7480 c3         1 7KJ       0.147900
     64 C28          6.0550     0.7010    -0.5810 c3         1 7KJ       0.251100
@<TRIPOS>BOND
     1     1     2 ar  
     2     1     6 ar  
     3     1    34 1   
     4     2     3 ar  
     5     2    35 1   
     6     3     4 ar  
     7     3    36 1   
     8     4     5 ar  
     9     4    37 1   
    10     5     6 ar  
    11     5     7 ar  
    12     6    10 ar  
    13     7     8 ar  
    14     7    11 1   
    15     8     9 ar  
    16     8    38 1   
    17     9    10 ar  
    18     9    39 1   
    19    10    31 1   
    20    11    27 1   
    21    11    40 1   
    22    11    41 1   
    23    12    27 1   
    24    12    28 2   
    25    12    42 1   
    26    13    14 1   
    27    13    27 1   
    28    13    62 2   
    29    14    15 2   
    30    14    16 1   
    31    15    28 1   
    32    15    33 1   
    33    16    17 2   
    34    16    21 1   
    35    17    18 1   
    36    17    33 1   
    37    18    19 1   
    38    18    46 1   
    39    18    47 1   
    40    19    20 1   
    41    19    29 1   
    42    19    48 1   
    43    20    21 1   
    44    20    49 1   
    45    20    50 1   
    46    21    51 1   
    47    21    52 1   
    48    22    23 1   
    49    22    24 2   
    50    22    64 1   
    51    23    26 1   
    52    23    30 2   
    53    24    25 1   
    54    24    32 1   
    55    25    55 1   
    56    25    56 1   
    57    25    57 1   
    58    26    58 1   
    59    26    59 1   
    60    26    60 1   
    61    29    61 1   
    62    29    64 1   
    63    30    32 1   
    64    31    63 1   
    65    43    63 1   
    66    44    63 1   
    67    45    63 1   
    68    53    64 1   
    69    54    64 1   
@<TRIPOS>SUBSTRUCTURE
     1 7KJ         1 TEMP              0 ****  ****    0 ROOT
