@<TRIPOS>MOLECULE
7KK
   43    46     1     0     0
SMALL
No Charge or Current Charge


@<TRIPOS>ATOM
      1 C13         -0.8500     2.4460    -0.8540 ca         1 7KK       0.120000
      2 C15          1.2120     2.9800     0.3320 ca         1 7KK       0.256000
      3 C17         -0.8570     2.6390     1.5730 ca         1 7KK       0.120000
      4 C22          2.9990     0.5920    -0.4790 ca         1 7KK      -0.315500
      5 C26          2.2130    -1.3490     0.7710 ca         1 7KK      -0.120000
      6 C28          1.8570    -1.2340    -1.6340 ca         1 7KK       0.167000
      7 C01         -5.7650    -3.6750    -0.1880 ca         1 7KK      -0.109000
      8 C02         -6.7410    -2.6660    -0.1970 ca         1 7KK      -0.096000
      9 C03         -6.3580    -1.3200    -0.0790 ca         1 7KK      -0.099000
     10 C04         -4.9970    -0.9830     0.0490 ca         1 7KK      -0.051000
     11 C05         -3.9990    -1.9950     0.0600 ca         1 7KK       0.245000
     12 C06         -4.4050    -3.3380    -0.0600 ca         1 7KK      -0.071000
     13 C07         -4.6140     0.3670     0.1660 ca         1 7KK      -0.090000
     14 C08         -3.2510     0.6690     0.2890 ca         1 7KK       0.069100
     15 C09         -2.3200    -0.3990     0.2940 ca         1 7KK       0.310900
     16 N10         -2.6830    -1.6990     0.1820 nb         1 7KK      -0.630000
     17 C12         -1.5400     2.3680     0.3720 ca         1 7KK       0.102100
     18 C14          0.5180     2.7540    -0.8710 ca         1 7KK      -0.109500
     19 C16          0.5140     2.9450     1.5490 ca         1 7KK      -0.109500
     20 Cl1         -1.6920     2.5430     3.1220 cl         1 7KK      -0.146000
     21 Cl2         -1.6730     2.1200    -2.3800 cl         1 7KK      -0.146000
     22 N20          2.5910     3.1620     0.3420 nu         1 7KK      -0.866100
     23 S21          3.7040     2.2390    -0.5070 sy         1 7KK       1.156600
     24 O23          4.8890     2.3010     0.3490 o          1 7KK      -0.511500
     25 O24          3.6850     2.7860    -1.8650 o          1 7KK      -0.511500
     26 C25          2.8530    -0.1000     0.7390 ca         1 7KK       0.237000
     27 C27          1.7100    -1.9170    -0.4130 ca         1 7KK      -0.006900
     28 C29          2.4970     0.0160    -1.6710 ca         1 7KK      -0.030000
     29 F30          3.2860     0.4360     1.9020 f          1 7KK      -0.159000
     30 Br1          0.8090    -3.6070    -0.3420 br         1 7KK      -0.021100
     31 F32          1.3700    -1.7670    -2.7780 f          1 7KK      -0.138000
     32 H1           2.0950    -1.8680     1.7180 ha         1 7KK       0.156000
     33 H3          -7.7930    -2.9270    -0.2960 ha         1 7KK       0.116000
     34 H4          -7.1190    -0.5430    -0.0870 ha         1 7KK       0.118000
     35 H5          -3.6550    -4.1250    -0.0530 ha         1 7KK       0.133000
     36 H6          -5.3540     1.1630     0.1610 ha         1 7KK       0.138000
     37 H7          -1.2500    -0.2180     0.3920 h4         1 7KK       0.020100
     38 H8           1.0380     2.7970    -1.8220 ha         1 7KK       0.154500
     39 H9           1.0370     3.1170     2.4850 ha         1 7KK       0.154500
     40 H10          3.0230     3.2850     1.2490 hn         1 7KK       0.503000
     41 H11          2.5830     0.5340    -2.6250 ha         1 7KK       0.170000
     42 O11         -2.8650     1.9920     0.4030 os         1 7KK      -0.224200
     43 H2          -6.0590    -4.7180    -0.2790 ha         1 7KK       0.118000
@<TRIPOS>BOND
     1     1    17 ar  
     2     1    18 ar  
     3     1    21 1   
     4     2    18 ar  
     5     2    19 ar  
     6     2    22 1   
     7     3    17 ar  
     8     3    19 ar  
     9     3    20 1   
    10     4    23 1   
    11     4    26 ar  
    12     4    28 ar  
    13     5    26 ar  
    14     5    27 ar  
    15     5    32 1   
    16     6    27 ar  
    17     6    28 ar  
    18     6    31 1   
    19     7     8 ar  
    20     7    12 ar  
    21     7    43 1   
    22     8     9 ar  
    23     8    33 1   
    24     9    10 ar  
    25     9    34 1   
    26    10    11 ar  
    27    10    13 ar  
    28    11    12 ar  
    29    11    16 ar  
    30    12    35 1   
    31    13    14 ar  
    32    13    36 1   
    33    14    15 ar  
    34    14    42 1   
    35    15    16 ar  
    36    15    37 1   
    37    17    42 1   
    38    18    38 1   
    39    19    39 1   
    40    22    23 1   
    41    22    40 1   
    42    23    24 2   
    43    23    25 2   
    44    26    29 1   
    45    27    30 1   
    46    28    41 1   
@<TRIPOS>SUBSTRUCTURE
     1 7KK         1 TEMP              0 ****  ****    0 ROOT
