@<TRIPOS>MOLECULE
7KK
   43    46     1     0     0
SMALL
bcc


@<TRIPOS>ATOM
      1 C13         -1.0560     2.6810    -0.6920 ca         1 7KK       0.028400
      2 C15          1.1590     2.9300     0.1680 ca         1 7KK       0.117600
      3 C17         -0.5870     2.1060     1.5830 ca         1 7KK       0.028400
      4 C22          2.8770     0.5670    -0.4080 ca         1 7KK      -0.315500
      5 C26          2.7490    -1.0620     1.3690 ca         1 7KK      -0.138000
      6 C28          1.5890    -1.4170    -0.7040 ca         1 7KK       0.131900
      7 C01         -5.7580    -3.5110    -0.7900 ca         1 7KK      -0.127000
      8 C02         -6.7320    -2.5350    -0.4830 ca         1 7KK      -0.114000
      9 C03         -6.3590    -1.2700    -0.1230 ca         1 7KK      -0.117000
     10 C04         -4.9890    -0.9250    -0.0550 ca         1 7KK      -0.116300
     11 C05         -4.0120    -1.9040    -0.3650 ca         1 7KK       0.375600
     12 C06         -4.4270    -3.2040    -0.7330 ca         1 7KK      -0.154300
     13 C07         -4.5460     0.3620     0.3060 ca         1 7KK      -0.108000
     14 C08         -3.2040     0.6050     0.3450 ca         1 7KK       0.003800
     15 C09         -2.3020    -0.4330     0.0180 ca         1 7KK       0.376200
     16 N10         -2.6890    -1.6290    -0.3210 nb         1 7KK      -0.630000
     17 C12         -1.4960     2.2000     0.5360 ca         1 7KK       0.102100
     18 C14          0.2600     3.0620    -0.8830 ca         1 7KK      -0.127500
     19 C16          0.7380     2.4620     1.4070 ca         1 7KK      -0.127500
     20 CL1         -1.1240     1.4910     3.0940 cl         1 7KK      -0.054400
     21 CL2         -2.1850     2.8090    -1.9800 cl         1 7KK      -0.054400
     22 N20          2.5260     3.2240    -0.0420 nu         1 7KK      -0.672500
     23 S21          3.3900     2.1630    -0.9970 sy         1 7KK       1.298200
     24 O23          4.7870     2.3970    -0.7060 o          1 7KK      -0.582300
     25 O24          2.8950     2.2760    -2.3530 o          1 7KK      -0.582300
     26 C25          3.2130     0.1350     0.8660 ca         1 7KK       0.201900
     27 C27          1.9240    -1.8440     0.5740 ca         1 7KK      -0.006900
     28 C29          2.0540    -0.2190    -1.2010 ca         1 7KK      -0.048000
     29 F30          3.9670     0.9100     1.6420 f          1 7KK      -0.123900
     30 BR1          1.2520    -3.4620     1.2130 br         1 7KK      -0.021100
     31 F32          0.7940    -2.1670    -1.4600 f          1 7KK      -0.102900
     32 H1           3.0220    -1.3650     2.3700 ha         1 7KK       0.174000
     33 H3          -7.7810    -2.7950    -0.5360 ha         1 7KK       0.134000
     34 H4          -7.1050    -0.5200     0.1100 ha         1 7KK       0.136000
     35 H5          -3.6700    -3.9420    -0.9670 ha         1 7KK       0.151000
     36 H6          -5.2600     1.1400     0.5480 ha         1 7KK       0.156000
     37 H7          -1.2300    -0.2600     0.0400 h4         1 7KK       0.020100
     38 H8           0.5780     3.4560    -1.8370 ha         1 7KK       0.172500
     39 H9           1.4370     2.3630     2.2270 ha         1 7KK       0.172500
     40 H10          3.0400     3.4920     0.7910 hn         1 7KK       0.447800
     41 H11          1.7690     0.0920    -2.1980 ha         1 7KK       0.188000
     42 O11         -2.7920     1.8530     0.7230 os         1 7KK      -0.224200
     43 H2          -6.0740    -4.5060    -1.0740 ha         1 7KK       0.136000
@<TRIPOS>BOND
     1     1    17 ar  
     2     1    18 ar  
     3     1    21 1   
     4     2    18 ar  
     5     2    19 ar  
     6     2    22 1   
     7     3    17 ar  
     8     3    19 ar  
     9     3    20 1   
    10     4    23 1   
    11     4    26 ar  
    12     4    28 ar  
    13     5    26 ar  
    14     5    27 ar  
    15     5    32 1   
    16     6    27 ar  
    17     6    28 ar  
    18     6    31 1   
    19     7     8 ar  
    20     7    12 ar  
    21     7    43 1   
    22     8     9 ar  
    23     8    33 1   
    24     9    10 ar  
    25     9    34 1   
    26    10    11 ar  
    27    10    13 ar  
    28    11    12 ar  
    29    11    16 ar  
    30    12    35 1   
    31    13    14 ar  
    32    13    36 1   
    33    14    15 ar  
    34    14    42 1   
    35    15    16 ar  
    36    15    37 1   
    37    17    42 1   
    38    18    38 1   
    39    19    39 1   
    40    22    23 1   
    41    22    40 1   
    42    23    24 2   
    43    23    25 2   
    44    26    29 1   
    45    27    30 1   
    46    28    41 1   
@<TRIPOS>SUBSTRUCTURE
     1 7KK         1 TEMP              0 ****  ****    0 ROOT
