@<TRIPOS>MOLECULE
7KM
   44    46     1     0     0
SMALL
bcc


@<TRIPOS>ATOM
      1 C10         -1.8800     2.5670     0.2180 ca         1 7KM      -0.117500
      2 C13         -4.1850     3.4990    -1.0040 ca         1 7KM      -0.127500
      3 C22          3.1110     0.8400    -0.1520 ca         1 7KM      -0.314500
      4 C24          3.5060     2.4780     1.5430 ca         1 7KM      -0.149000
      5 C26          1.9050     2.9020    -0.2070 ca         1 7KM      -0.149000
      6 C01         -4.5630    -2.9750     0.6840 c3         1 7KM      -0.042800
      7 C02         -3.4390    -2.0450     0.3370 ca         1 7KM      -0.120300
      8 C03         -2.1490    -2.5220     0.1620 ca         1 7KM       0.186900
      9 F04         -1.9340    -3.8330     0.3180 f          1 7KM      -0.120900
     10 C05         -1.0770    -1.6940    -0.1310 ca         1 7KM      -0.199600
     11 C06         -1.3150    -0.3290    -0.2620 ca         1 7KM      -0.078000
     12 C07         -2.5910     0.1990    -0.1030 cp         1 7KM      -0.050000
     13 C08         -3.6350    -0.6770     0.1960 ca         1 7KM      -0.076000
     14 C09         -2.8230     1.6490    -0.2490 cp         1 7KM      -0.036000
     15 C11         -2.0830     3.9310     0.0700 ca         1 7KM      -0.127500
     16 C12         -3.2370     4.4020    -0.5420 ca         1 7KM      -0.120000
     17 C14         -3.9800     2.1340    -0.8590 ca         1 7KM      -0.117500
     18 O16          0.5220    -3.2220    -1.0270 o          1 7KM      -0.503100
     19 N17          1.2470    -1.5200     0.2920 ns         1 7KM      -0.450300
     20 N18          2.5680    -1.8290     0.1520 n7         1 7KM      -0.522100
     21 S19          3.4330    -0.7660    -0.8200 sy         1 7KM       1.269200
     22 O20          2.8370    -0.8310    -2.1390 o          1 7KM      -0.583800
     23 O21          4.8230    -1.1230    -0.6070 o          1 7KM      -0.583800
     24 C23          3.7850     1.2350     0.9980 ca         1 7KM      -0.037500
     25 C25          2.5670     3.3090     0.9430 ca         1 7KM      -0.074000
     26 C27          2.1730     1.6600    -0.7640 ca         1 7KM      -0.037500
     27 H101        -0.9910     2.2160     0.7270 ha         1 7KM       0.131000
     28 H131        -5.0860     3.8560    -1.4850 ha         1 7KM       0.132500
     29 H241         4.0250     2.7990     2.4360 ha         1 7KM       0.141000
     30 H261         1.1810     3.5520    -0.6800 ha         1 7KM       0.141000
     31 H012        -4.3940    -3.4660     1.6430 hc         1 7KM       0.051700
     32 H013        -5.5020    -2.4290     0.7500 hc         1 7KM       0.051700
     33 H011        -4.6830    -3.7570    -0.0660 hc         1 7KM       0.051700
     34 H061        -0.4980     0.3270    -0.5380 ha         1 7KM       0.141000
     35 H081        -4.6340    -0.2840     0.3450 ha         1 7KM       0.140000
     36 H111        -1.3420     4.6270     0.4430 ha         1 7KM       0.132500
     37 H121        -3.3970     5.4660    -0.6570 ha         1 7KM       0.134000
     38 H141        -4.7190     1.4430    -1.2440 ha         1 7KM       0.131000
     39 H171         0.9860    -0.8270     0.9810 hn         1 7KM       0.323500
     40 H181         3.0340    -2.0630     1.0240 hn         1 7KM       0.420800
     41 H231         4.5200     0.5920     1.4650 ha         1 7KM       0.156500
     42 H251         2.3560     4.2790     1.3710 ha         1 7KM       0.137000
     43 H271         1.6660     1.3510    -1.6680 ha         1 7KM       0.156500
     44 C15          0.2890    -2.2500    -0.3480 c          1 7KM       0.708700
@<TRIPOS>BOND
     1     1    14 ar  
     2     1    15 ar  
     3     1    27 1   
     4     2    16 ar  
     5     2    17 ar  
     6     2    28 1   
     7     3    21 1   
     8     3    24 ar  
     9     3    26 ar  
    10     4    24 ar  
    11     4    25 ar  
    12     4    29 1   
    13     5    25 ar  
    14     5    26 ar  
    15     5    30 1   
    16     6     7 1   
    17     6    31 1   
    18     6    32 1   
    19     6    33 1   
    20     7     8 ar  
    21     7    13 ar  
    22     8     9 1   
    23     8    10 ar  
    24    10    11 ar  
    25    10    44 1   
    26    11    12 ar  
    27    11    34 1   
    28    12    13 ar  
    29    12    14 1   
    30    13    35 1   
    31    14    17 ar  
    32    15    16 ar  
    33    15    36 1   
    34    16    37 1   
    35    17    38 1   
    36    18    44 2   
    37    19    20 1   
    38    19    39 1   
    39    19    44 1   
    40    20    21 1   
    41    20    40 1   
    42    21    22 2   
    43    21    23 2   
    44    24    41 1   
    45    25    42 1   
    46    26    43 1   
@<TRIPOS>SUBSTRUCTURE
     1 7KM         1 TEMP              0 ****  ****    0 ROOT
