@<TRIPOS>MOLECULE
7KM
   44    46     1     0     0
SMALL
No Charge or Current Charge


@<TRIPOS>ATOM
      1 C10         -1.5110     2.5000     1.5270 ca         1 7KM      -0.099500
      2 C13         -3.4870     3.9750     0.1880 ca         1 7KM      -0.109500
      3 C22          2.7970     0.6540    -0.6130 ca         1 7KM      -0.314500
      4 C24          1.6310     2.7140    -0.0180 ca         1 7KM      -0.131000
      5 C26          1.0860     1.5690    -2.0930 ca         1 7KM      -0.131000
      6 C01         -4.5290    -2.6890    -0.2630 c3         1 7KM      -0.042800
      7 C02         -3.2790    -1.8400    -0.0530 ca         1 7KM      -0.120300
      8 C03         -1.9980    -2.4260    -0.1120 ca         1 7KM       0.222000
      9 F04         -1.9020    -3.7570    -0.3410 f          1 7KM      -0.156000
     10 C05         -0.8370    -1.6490     0.0950 ca         1 7KM      -0.199600
     11 C06         -0.9880    -0.2650     0.3520 ca         1 7KM      -0.060000
     12 C07         -2.2600     0.3500     0.4030 cp         1 7KM      -0.050000
     13 C08         -3.4010    -0.4610     0.2000 ca         1 7KM      -0.058000
     14 C09         -2.3870     1.8230     0.6420 cp         1 7KM      -0.036000
     15 C11         -1.6190     3.8850     1.7380 ca         1 7KM      -0.109500
     16 C12         -2.6070     4.6240     1.0680 ca         1 7KM      -0.102000
     17 C14         -3.3780     2.5890    -0.0230 ca         1 7KM      -0.099500
     18 O16          0.7830    -3.2420    -0.6980 o          1 7KM      -0.503100
     19 N17          1.5410    -1.5860     0.6810 ns         1 7KM      -0.383300
     20 N18          2.9610    -1.8060     0.4760 n7         1 7KM      -0.577300
     21 S19          3.9850    -0.6520    -0.2140 sy         1 7KM       1.127600
     22 O20          4.5110    -1.2420    -1.4500 o          1 7KM      -0.513000
     23 O21          4.8490    -0.1790     0.8720 o          1 7KM      -0.513000
     24 C23          2.5870     1.7270     0.2810 ca         1 7KM      -0.019500
     25 C25          0.8780     2.6350    -1.2020 ca         1 7KM      -0.056000
     26 C27          2.0430     0.5800    -1.8040 ca         1 7KM      -0.019500
     27 H101        -0.7450     1.9460     2.0640 ha         1 7KM       0.113000
     28 H131        -4.2520     4.5450    -0.3350 ha         1 7KM       0.114500
     29 H241         1.4690     3.5380     0.6730 ha         1 7KM       0.123000
     30 H261         0.5010     1.5050    -3.0080 ha         1 7KM       0.123000
     31 H012        -4.5990    -3.4780     0.4950 hc         1 7KM       0.051700
     32 H013        -5.4460    -2.0910    -0.2020 hc         1 7KM       0.051700
     33 H011        -4.5160    -3.1710    -1.2480 hc         1 7KM       0.051700
     34 H061        -0.1120     0.3660     0.4660 ha         1 7KM       0.123000
     35 H081        -4.3900    -0.0130     0.2480 ha         1 7KM       0.122000
     36 H111        -0.9370     4.3860     2.4230 ha         1 7KM       0.114500
     37 H121        -2.6900     5.6960     1.2300 ha         1 7KM       0.116000
     38 H141        -4.0590     2.1080    -0.7210 ha         1 7KM       0.113000
     39 H171         1.2200    -0.8110     1.2560 hn         1 7KM       0.323500
     40 H181         3.4710    -2.1700     1.2860 hn         1 7KM       0.476000
     41 H231         3.1540     1.7990     1.2090 ha         1 7KM       0.138500
     42 H251         0.1330     3.3950    -1.4250 ha         1 7KM       0.119000
     43 H271         2.1860    -0.2470    -2.4980 ha         1 7KM       0.138500
     44 C15          0.5380    -2.2620    -0.0070 c          1 7KM       0.641700
@<TRIPOS>BOND
     1     1    14 ar  
     2     1    15 ar  
     3     1    27 1   
     4     2    16 ar  
     5     2    17 ar  
     6     2    28 1   
     7     3    21 1   
     8     3    24 ar  
     9     3    26 ar  
    10     4    24 ar  
    11     4    25 ar  
    12     4    29 1   
    13     5    25 ar  
    14     5    26 ar  
    15     5    30 1   
    16     6     7 1   
    17     6    31 1   
    18     6    32 1   
    19     6    33 1   
    20     7     8 ar  
    21     7    13 ar  
    22     8     9 1   
    23     8    10 ar  
    24    10    11 ar  
    25    10    44 1   
    26    11    12 ar  
    27    11    34 1   
    28    12    13 ar  
    29    12    14 1   
    30    13    35 1   
    31    14    17 ar  
    32    15    16 ar  
    33    15    36 1   
    34    16    37 1   
    35    17    38 1   
    36    18    44 2   
    37    19    20 1   
    38    19    39 1   
    39    19    44 1   
    40    20    21 1   
    41    20    40 1   
    42    21    22 2   
    43    21    23 2   
    44    24    41 1   
    45    25    42 1   
    46    26    43 1   
@<TRIPOS>SUBSTRUCTURE
     1 7KM         1 TEMP              0 ****  ****    0 ROOT
