@<TRIPOS>MOLECULE
7KN
   50    53     1     0     0
SMALL
No Charge or Current Charge


@<TRIPOS>ATOM
      1 C16         -3.6490    -2.0450    -1.1600 c5         1 7KN      -0.096400
      2 C12         -0.8830     4.4790    -0.5210 ca         1 7KN       0.276900
      3 C11         -0.8760     4.4570     0.9000 ca         1 7KN       0.273900
      4 C15         -1.9500     1.0250    -1.3680 c3         1 7KN       0.196500
      5 C14         -1.5590     2.2710    -0.5560 ca         1 7KN       0.282300
      6 C9          -1.5510     2.2560     0.8690 ca         1 7KN       0.315900
      7 C1           2.5980     1.6600    -0.1070 c6         1 7KN       0.195800
      8 C2           3.8960     2.4100    -0.5340 c6         1 7KN       0.138100
      9 C4           5.2760     0.5080    -0.0630 c6         1 7KN       0.138100
     10 C5           4.0570    -0.3510     0.3930 c6         1 7KN       0.195800
     11 O3           5.0470     1.9130     0.1850 os         1 7KN      -0.464000
     12 N6           2.7390     0.1570    -0.1360 nh         1 7KN      -0.791300
     13 C8           0.7180    -4.2180     0.2630 ce         1 7KN      -0.290800
     14 N10         -1.2110     3.3480     1.6140 nb         1 7KN      -0.642000
     15 N13         -1.2250     3.3920    -1.2650 nb         1 7KN      -0.642000
     16 C17         -4.5800    -2.8450    -0.2170 c5         1 7KN      -0.073400
     17 C18         -3.6990    -2.9110     1.0580 c5         1 7KN      -0.073400
     18 C19         -3.2180    -1.4360     1.2220 c5         1 7KN      -0.096400
     19 C20         -3.2620    -0.8540    -0.2350 c5         1 7KN       0.264500
     20 N21         -1.9280    -0.2960    -0.6600 nh         1 7KN      -0.785300
     21 N22          0.4080    -0.0980    -0.4020 nb         1 7KN      -0.413000
     22 C23         -0.6630    -0.9110    -0.4100 ca         1 7KN       0.407900
     23 N24         -0.5980    -2.2410    -0.2030 nb         1 7KN      -0.316000
     24 C25          0.6310    -2.7400     0.0290 ca         1 7KN       0.220800
     25 N26          1.7600    -2.0020     0.0610 nb         1 7KN      -0.271000
     26 C27          1.5940    -0.6830    -0.1590 ca         1 7KN       0.408900
     27 H1          -2.7980    -2.6520    -1.4830 hc         1 7KN       0.064200
     28 H2          -4.1610    -1.7070    -2.0670 hc         1 7KN       0.064200
     29 H3          -0.6120     5.3810    -1.0670 h4         1 7KN       0.018100
     30 H4          -0.5990     5.3420     1.4700 h4         1 7KN       0.018100
     31 H5          -2.9520     1.2050    -1.7780 h1         1 7KN       0.066200
     32 H6          -1.2880     0.9690    -2.2430 h1         1 7KN       0.066200
     33 H7          -1.8240     1.3600     1.4260 h4         1 7KN       0.050100
     34 H9           1.7970     1.9940    -0.7830 h1         1 7KN       0.062700
     35 H10          4.0630     2.2800    -1.6130 h1         1 7KN       0.043700
     36 H11          3.7850     3.4860    -0.3360 h1         1 7KN       0.043700
     37 H12          6.1780     0.1900     0.4790 h1         1 7KN       0.043700
     38 H13          5.4570     0.3570    -1.1370 h1         1 7KN       0.043700
     39 H14          4.2450    -1.3810     0.0590 h1         1 7KN       0.062700
     40 H15          4.0340    -0.3680     1.4930 h1         1 7KN       0.062700
     41 H17         -0.1980    -4.8140     0.2410 h4         1 7KN       0.060000
     42 H18         -5.5270    -2.3220    -0.0330 hc         1 7KN       0.029700
     43 H19         -4.8200    -3.8390    -0.6110 hc         1 7KN       0.029700
     44 H20         -4.2560    -3.2650     1.9330 hc         1 7KN       0.029700
     45 H21         -2.8530    -3.5950     0.9190 hc         1 7KN       0.029700
     46 H22         -3.9100    -0.8760     1.8600 hc         1 7KN       0.064200
     47 H23         -2.2410    -1.3690     1.7120 hc         1 7KN       0.064200
     48 H24         -4.0440    -0.0820    -0.2800 h1         1 7KN       0.037700
     49 H8           2.3210     1.9880     0.9060 h1         1 7KN       0.062700
     50 N7           1.8620    -4.8210     0.4970 n1         1 7KN      -0.480000
@<TRIPOS>BOND
     1     1    16 1   
     2     1    19 1   
     3     1    27 1   
     4     1    28 1   
     5     2     3 ar  
     6     2    15 ar  
     7     2    29 1   
     8     3    14 ar  
     9     3    30 1   
    10     4     5 1   
    11     4    20 1   
    12     4    31 1   
    13     4    32 1   
    14     5     6 ar  
    15     5    15 ar  
    16     6    14 ar  
    17     6    33 1   
    18     7     8 1   
    19     7    12 1   
    20     7    34 1   
    21     7    49 1   
    22     8    11 1   
    23     8    35 1   
    24     8    36 1   
    25     9    10 1   
    26     9    11 1   
    27     9    37 1   
    28     9    38 1   
    29    10    12 1   
    30    10    39 1   
    31    10    40 1   
    32    12    26 1   
    33    13    24 1   
    34    13    41 1   
    35    13    50 2   
    36    16    17 1   
    37    16    42 1   
    38    16    43 1   
    39    17    18 1   
    40    17    44 1   
    41    17    45 1   
    42    18    19 1   
    43    18    46 1   
    44    18    47 1   
    45    19    20 1   
    46    19    48 1   
    47    20    22 1   
    48    21    22 ar  
    49    21    26 ar  
    50    22    23 ar  
    51    23    24 ar  
    52    24    25 ar  
    53    25    26 ar  
@<TRIPOS>SUBSTRUCTURE
     1 7KN         1 TEMP              0 ****  ****    0 ROOT
