@<TRIPOS>MOLECULE
7KN
   50    53     1     0     0
SMALL
bcc


@<TRIPOS>ATOM
      1 C16         -3.0410    -2.0550    -1.4370 c5         1 7KN      -0.096400
      2 C12         -3.2710     3.3510     1.0610 ca         1 7KN       0.276900
      3 C11         -2.2460     3.9560     1.7720 ca         1 7KN       0.273900
      4 C15         -1.4660     1.2180    -1.2770 c3         1 7KN       0.196500
      5 C14         -1.7540     2.2250    -0.1960 ca         1 7KN       0.282300
      6 C9          -0.7300     2.8430     0.5220 ca         1 7KN       0.315900
      7 C1           3.0910     1.4790    -0.4480 c6         1 7KN       0.195800
      8 C2           4.3290     1.6880    -1.3010 c6         1 7KN       0.114900
      9 C4           5.4340    -0.0840    -0.2860 c6         1 7KN       0.114900
     10 C5           4.2500    -0.3750     0.6160 c6         1 7KN       0.195800
     11 O3           5.5030     1.2810    -0.6340 os         1 7KN      -0.417600
     12 N6           3.0300     0.1020    -0.0030 nh         1 7KN      -0.791300
     13 C8           0.6760    -3.8570     1.1690 ce         1 7KN      -0.240800
     14 N10         -0.9730     3.7040     1.4980 nb         1 7KN      -0.642000
     15 N13         -3.0250     2.4940     0.0800 nb         1 7KN      -0.642000
     16 C17         -4.4140    -2.5110    -0.9340 c5         1 7KN      -0.073400
     17 C18         -4.5320    -1.9840     0.5190 c5         1 7KN      -0.073400
     18 C19         -3.2860    -1.1200     0.7670 c5         1 7KN      -0.096400
     19 C20         -2.8050    -0.7690    -0.6440 c5         1 7KN       0.264500
     20 N21         -1.4920    -0.1450    -0.7710 nh         1 7KN      -0.785300
     21 N22          0.7660     0.0180    -0.3720 nb         1 7KN      -0.939000
     22 C23         -0.3490    -0.7090    -0.3130 ca         1 7KN       0.933900
     23 N24         -0.4050    -1.9550     0.1660 nb         1 7KN      -0.842000
     24 C25          0.7420    -2.4560     0.6100 ca         1 7KN       0.746800
     25 N26          1.9060    -1.8160     0.5940 nb         1 7KN      -0.797000
     26 C27          1.8670    -0.5850     0.0770 ca         1 7KN       0.934900
     27 H1          -2.2730    -2.7870    -1.1920 hc         1 7KN       0.064200
     28 H2          -3.0190    -1.8880    -2.5160 hc         1 7KN       0.064200
     29 H3          -4.3080     3.5700     1.2870 h4         1 7KN       0.018100
     30 H4          -2.4610     4.6560     2.5710 h4         1 7KN       0.018100
     31 H5          -2.2230     1.3080    -2.0560 h1         1 7KN       0.066200
     32 H6          -0.4990     1.4200    -1.7320 h1         1 7KN       0.066200
     33 H7           0.3060     2.6260     0.2920 h4         1 7KN       0.050100
     34 H9           2.2070     1.7180    -1.0330 h1         1 7KN       0.062700
     35 H10          4.2140     1.1360    -2.2460 h1         1 7KN       0.043700
     36 H11          4.4370     2.7460    -1.5410 h1         1 7KN       0.043700
     37 H12          6.3610    -0.3380     0.2300 h1         1 7KN       0.043700
     38 H13          5.3670    -0.7070    -1.1900 h1         1 7KN       0.043700
     39 H14          4.1740    -1.4440     0.7960 h1         1 7KN       0.062700
     40 H15          4.3950     0.1170     1.5860 h1         1 7KN       0.062700
     41 H17         -0.4010    -4.1860     1.0860 h4         1 7KN       0.010000
     42 H18         -5.2020    -2.0790    -1.5540 hc         1 7KN       0.029700
     43 H19         -4.5290    -3.5940    -0.9920 hc         1 7KN       0.029700
     44 H20         -5.4440    -1.3960     0.6350 hc         1 7KN       0.029700
     45 H21         -4.5930    -2.8000     1.2400 hc         1 7KN       0.029700
     46 H22         -3.4980    -0.2280     1.3590 hc         1 7KN       0.064200
     47 H23         -2.5190    -1.6960     1.2830 hc         1 7KN       0.064200
     48 H24         -3.5010    -0.0230    -1.0350 h1         1 7KN       0.037700
     49 H8           3.1130     2.1540     0.4170 h1         1 7KN       0.062700
     50 N7           1.6240    -4.5150     1.6310 n1         1 7KN      -0.480000
@<TRIPOS>BOND
     1     1    16 1   
     2     1    19 1   
     3     1    27 1   
     4     1    28 1   
     5     2     3 ar  
     6     2    15 ar  
     7     2    29 1   
     8     3    14 ar  
     9     3    30 1   
    10     4     5 1   
    11     4    20 1   
    12     4    31 1   
    13     4    32 1   
    14     5     6 ar  
    15     5    15 ar  
    16     6    14 ar  
    17     6    33 1   
    18     7     8 1   
    19     7    12 1   
    20     7    34 1   
    21     7    49 1   
    22     8    11 1   
    23     8    35 1   
    24     8    36 1   
    25     9    10 1   
    26     9    11 1   
    27     9    37 1   
    28     9    38 1   
    29    10    12 1   
    30    10    39 1   
    31    10    40 1   
    32    12    26 1   
    33    13    24 1   
    34    13    41 1   
    35    13    50 2   
    36    16    17 1   
    37    16    42 1   
    38    16    43 1   
    39    17    18 1   
    40    17    44 1   
    41    17    45 1   
    42    18    19 1   
    43    18    46 1   
    44    18    47 1   
    45    19    20 1   
    46    19    48 1   
    47    20    22 1   
    48    21    22 ar  
    49    21    26 ar  
    50    22    23 ar  
    51    23    24 ar  
    52    24    25 ar  
    53    25    26 ar  
@<TRIPOS>SUBSTRUCTURE
     1 7KN         1 TEMP              0 ****  ****    0 ROOT
