@<TRIPOS>MOLECULE
7KO
   38    40     1     0     0
SMALL
No Charge or Current Charge


@<TRIPOS>ATOM
      1 C5           0.6510    -0.3570     1.1280 ca         1 7KO      -0.338000
      2 C6           1.2040    -1.6230     1.3500 ca         1 7KO       0.281000
      3 N1           1.0710    -2.6210     0.4610 nb         1 7KO      -0.274000
      4 C2           0.3750    -2.3200    -0.6400 ca         1 7KO       0.432900
      5 N3          -0.1930    -1.1550    -0.9610 nb         1 7KO      -0.345000
      6 C4          -0.0520    -0.1580    -0.0690 ca         1 7KO       0.436900
      7 CAK          2.3440     2.7220     0.8410 ca         1 7KO      -0.060500
      8 CAL          3.6970     2.8510     0.4910 ca         1 7KO      -0.164000
      9 CAQ          4.0670     2.7690    -0.8620 ca         1 7KO       0.339900
     10 NAP          3.1730     2.5700    -1.8580 nb         1 7KO      -0.664500
     11 CAO          1.8680     2.4420    -1.5170 ca         1 7KO       0.344400
     12 CAJ          1.4080     2.5100    -0.1880 ca         1 7KO      -0.165800
     13 CAI         -0.0750     2.3570     0.1110 c3         1 7KO       0.279100
     14 NAH         -0.6440     1.0830    -0.3880 nh         1 7KO      -0.783300
     15 NAA          0.2310    -3.3110    -1.5470 nv         1 7KO      -1.064900
     16 Cl6          2.1030    -1.9650     2.8190 cl         1 7KO      -0.172000
     17 CAN         -1.8690     1.1550    -1.2190 c3         1 7KO       0.279100
     18 CAS         -3.0830     0.5660    -0.5220 ca         1 7KO      -0.165800
     19 CAT         -3.5930    -0.6960    -0.8810 ca         1 7KO      -0.060500
     20 CAW         -4.7160    -1.1780    -0.1900 ca         1 7KO      -0.164000
     21 CAV         -5.2870    -0.3920     0.8250 ca         1 7KO       0.339900
     22 NAU         -4.8020     0.8210     1.1750 nb         1 7KO      -0.664500
     23 CAR         -3.7160     1.2820     0.5090 ca         1 7KO       0.344400
     24 H1           0.7610     0.4280     1.8670 ha         1 7KO       0.150000
     25 H3           4.4550     3.0140     1.2520 ha         1 7KO       0.126000
     26 H4           5.1110     2.8670    -1.1590 h4         1 7KO       0.020600
     27 H5           1.1710     2.2810    -2.3390 h4         1 7KO       0.019600
     28 H6          -0.2430     2.4350     1.1940 h1         1 7KO       0.067700
     29 H7          -0.5940     3.2150    -0.3390 h1         1 7KO       0.067700
     30 H8           0.8370    -4.1230    -1.4670 hn         1 7KO       0.501000
     31 H9          -0.0720    -3.0610    -2.4850 hn         1 7KO       0.501000
     32 H10         -2.0980     2.1960    -1.4850 h1         1 7KO       0.067700
     33 H11         -1.7070     0.6360    -2.1740 h1         1 7KO       0.067700
     34 H12         -3.1300    -1.2870    -1.6690 ha         1 7KO       0.127500
     35 H13         -5.1430    -2.1470    -0.4330 ha         1 7KO       0.126000
     36 H14         -6.1590    -0.7450     1.3740 h4         1 7KO       0.020600
     37 H15         -3.3460     2.2610     0.8140 h4         1 7KO       0.019600
     38 H2           2.0340     2.7830     1.8830 ha         1 7KO       0.127500
@<TRIPOS>BOND
     1     1     2 ar  
     2     1     6 ar  
     3     1    24 1   
     4     2     3 ar  
     5     2    16 1   
     6     3     4 ar  
     7     4     5 ar  
     8     4    15 1   
     9     5     6 ar  
    10     6    14 1   
    11     7     8 ar  
    12     7    12 ar  
    13     7    38 1   
    14     8     9 ar  
    15     8    25 1   
    16     9    10 ar  
    17     9    26 1   
    18    10    11 ar  
    19    11    12 ar  
    20    11    27 1   
    21    12    13 1   
    22    13    14 1   
    23    13    28 1   
    24    13    29 1   
    25    14    17 1   
    26    15    30 1   
    27    15    31 1   
    28    17    18 1   
    29    17    32 1   
    30    17    33 1   
    31    18    19 ar  
    32    18    23 ar  
    33    19    20 ar  
    34    19    34 1   
    35    20    21 ar  
    36    20    35 1   
    37    21    22 ar  
    38    21    36 1   
    39    22    23 ar  
    40    23    37 1   
@<TRIPOS>SUBSTRUCTURE
     1 7KO         1 TEMP              0 ****  ****    0 ROOT
