@<TRIPOS>MOLECULE
7KO
   38    40     1     0     0
SMALL
abcg2


@<TRIPOS>ATOM
      1 C5           1.3000    -0.9910     0.6250 ca         1 7KO      -0.338000
      2 C6           1.7790    -2.2760     0.5660 ca         1 7KO       0.281000
      3 N1           1.3190    -3.2390    -0.1960 nb         1 7KO      -0.274000
      4 C2           0.2880    -2.8840    -0.9790 ca         1 7KO       0.432900
      5 N3          -0.2770    -1.6820    -1.0240 nb         1 7KO      -0.345000
      6 C4           0.2070    -0.7300    -0.2310 ca         1 7KO       0.436900
      7 CAK          1.7660     3.2610     1.0970 ca         1 7KO      -0.060500
      8 CAL          2.8700     3.9950     0.7030 ca         1 7KO      -0.164000
      9 CAQ          3.4000     3.7670    -0.5600 ca         1 7KO       0.339900
     10 NAP          2.8960     2.8760    -1.4030 nb         1 7KO      -0.664500
     11 CAO          1.8350     2.1760    -1.0140 ca         1 7KO       0.344400
     12 CAJ          1.2220     2.3240     0.2240 ca         1 7KO      -0.165800
     13 CAI          0.0020     1.5350     0.6350 c3         1 7KO       0.279100
     14 NAH         -0.3780     0.4880    -0.2800 nh         1 7KO      -0.783300
     15 NAA         -0.2330    -3.8410    -1.7620 nv         1 7KO      -1.064900
     16 CL6          3.1250    -2.6970     1.5780 cl         1 7KO      -0.172000
     17 CAN         -1.4430     0.7920    -1.2240 c3         1 7KO       0.279100
     18 CAS         -2.8100     0.7010    -0.6000 ca         1 7KO      -0.165800
     19 CAT         -3.3880    -0.5230    -0.2730 ca         1 7KO      -0.060500
     20 CAW         -4.6390    -0.5400     0.3180 ca         1 7KO      -0.164000
     21 CAV         -5.2740     0.6710     0.5660 ca         1 7KO       0.339900
     22 NAU         -4.7400     1.8450     0.2560 nb         1 7KO      -0.664500
     23 CAR         -3.5400     1.8480    -0.3130 ca         1 7KO       0.344400
     24 H1           1.7560    -0.2540     1.2660 ha         1 7KO       0.150000
     25 H3           3.3170     4.7290     1.3590 ha         1 7KO       0.126000
     26 H4           4.2650     4.3250    -0.9000 h4         1 7KO       0.020600
     27 H5           1.4540     1.4570    -1.7320 h4         1 7KO       0.019600
     28 H6           0.1430     1.1310     1.6400 h1         1 7KO       0.067700
     29 H7          -0.8420     2.2230     0.7300 h1         1 7KO       0.067700
     30 H8           0.2500    -4.7160    -1.8630 hn         1 7KO       0.501000
     31 H9          -0.9010    -3.5900    -2.4700 hn         1 7KO       0.501000
     32 H10         -1.2780     1.8030    -1.6020 h1         1 7KO       0.067700
     33 H11         -1.3690     0.1150    -2.0720 h1         1 7KO       0.067700
     34 H12         -2.8660    -1.4470    -0.4870 ha         1 7KO       0.127500
     35 H13         -5.1210    -1.4710     0.5800 ha         1 7KO       0.126000
     36 H14         -6.2530     0.6890     1.0310 h4         1 7KO       0.020600
     37 H15         -3.1310     2.8220    -0.5650 h4         1 7KO       0.019600
     38 H2           1.3300     3.4130     2.0780 ha         1 7KO       0.127500
@<TRIPOS>BOND
     1     1     2 ar  
     2     1     6 ar  
     3     1    24 1   
     4     2     3 ar  
     5     2    16 1   
     6     3     4 ar  
     7     4     5 ar  
     8     4    15 1   
     9     5     6 ar  
    10     6    14 1   
    11     7     8 ar  
    12     7    12 ar  
    13     7    38 1   
    14     8     9 ar  
    15     8    25 1   
    16     9    10 ar  
    17     9    26 1   
    18    10    11 ar  
    19    11    12 ar  
    20    11    27 1   
    21    12    13 1   
    22    13    14 1   
    23    13    28 1   
    24    13    29 1   
    25    14    17 1   
    26    15    30 1   
    27    15    31 1   
    28    17    18 1   
    29    17    32 1   
    30    17    33 1   
    31    18    19 ar  
    32    18    23 ar  
    33    19    20 ar  
    34    19    34 1   
    35    20    21 ar  
    36    20    35 1   
    37    21    22 ar  
    38    21    36 1   
    39    22    23 ar  
    40    23    37 1   
@<TRIPOS>SUBSTRUCTURE
     1 7KO         1 TEMP              0 ****  ****    0 ROOT
