@<TRIPOS>MOLECULE
7KP
   50    52     1     0     0
SMALL
No Charge or Current Charge


@<TRIPOS>ATOM
      1 C1          -3.4640    -0.1710    -1.1190 c6         1 7KP       0.363300
      2 C2          -4.4720     1.0000    -1.4140 c6         1 7KP       0.120300
      3 C3          -4.6030     1.9000    -0.1510 c6         1 7KP       0.136300
      4 C4          -5.0080     1.0480     1.0860 c6         1 7KP       0.148300
      5 C5          -3.9740    -0.1040     1.2790 c6         1 7KP       0.170300
      6 C6          -4.3610    -1.0550     2.4600 c3         1 7KP       0.170600
      7 CAG         -1.0370    -0.5290    -0.8440 ca         1 7KP       0.173100
      8 CAH         -1.1400    -1.9270    -0.9990 ca         1 7KP      -0.212000
      9 CAI          0.0060    -2.7230    -0.8970 ca         1 7KP       0.169100
     10 CAJ          1.2580    -2.1430    -0.6450 ca         1 7KP      -0.230000
     11 CAK          1.3760    -0.7470    -0.4930 ca         1 7KP       0.018200
     12 CAL          0.2180     0.0470    -0.5950 ca         1 7KP      -0.169000
     13 CAM          2.6890    -0.0900    -0.2250 ce         1 7KP      -0.162200
     14 CAN          3.9420    -0.6320    -0.2130 cf         1 7KP      -0.135200
     15 CAO          5.3520     1.3900     0.3550 ca         1 7KP      -0.057000
     16 CAP          6.6090     1.9720     0.6010 ca         1 7KP      -0.178000
     17 CAQ          7.7700     1.1870     0.5450 ca         1 7KP       0.145100
     18 CAR          7.6770    -0.1780     0.2440 ca         1 7KP      -0.178000
     19 CAS          6.4220    -0.7630    -0.0020 ca         1 7KP      -0.057000
     20 CAT          5.2460     0.0140     0.0510 ca         1 7KP      -0.093800
     21 O1          -2.1190     0.3240    -0.9400 os         1 7KP      -0.366100
     22 O2          -4.0930     1.8170    -2.5530 oh         1 7KP      -0.705000
     23 O3          -5.5630     2.9480    -0.3830 oh         1 7KP      -0.672000
     24 O4          -5.1030     1.8980     2.2440 oh         1 7KP      -0.715000
     25 O5          -3.8840    -0.8980     0.0620 os         1 7KP      -0.454000
     26 O6          -3.4520    -2.1630     2.6280 oh         1 7KP      -0.706000
     27 OBA         -0.1010    -4.0720    -1.0450 oh         1 7KP      -0.532100
     28 H1          -3.4800    -0.8530    -1.9820 h2         1 7KP       0.080700
     29 H2          -5.4540     0.5400    -1.6050 h1         1 7KP       0.057700
     30 H3          -3.6140     2.3410     0.0480 h1         1 7KP       0.074700
     31 H4          -5.9890     0.5930     0.8820 h1         1 7KP       0.046700
     32 H5          -2.9860     0.3260     1.5020 h1         1 7KP       0.080700
     33 H6          -4.3950    -0.4600     3.3830 h1         1 7KP       0.034200
     34 H7          -5.3780    -1.4280     2.2770 h1         1 7KP       0.034200
     35 H8          -2.0920    -2.4100    -1.1910 ha         1 7KP       0.149000
     36 H9           2.1320    -2.7810    -0.5650 ha         1 7KP       0.113000
     37 H10          0.2870     1.1250    -0.4820 ha         1 7KP       0.128000
     38 H11          2.5950     0.9750    -0.0190 ha         1 7KP       0.174000
     39 H13          4.0260    -1.6970    -0.4310 ha         1 7KP       0.169000
     40 H15          4.4680     2.0200     0.4050 ha         1 7KP       0.113500
     41 H16          6.6700     3.0320     0.8340 ha         1 7KP       0.121000
     42 H17          8.5760    -0.7870     0.2010 ha         1 7KP       0.121000
     43 H18          6.3670    -1.8240    -0.2340 ha         1 7KP       0.113500
     44 H19         -4.0230     1.2240    -3.3390 ho         1 7KP       0.511000
     45 H20         -5.4080     3.2250    -1.3160 ho         1 7KP       0.465000
     46 H21         -5.5230     2.7280     1.9100 ho         1 7KP       0.524000
     47 H22         -3.8210    -2.7310     3.3440 ho         1 7KP       0.503000
     48 H23          0.7930    -4.4620    -0.9410 ho         1 7KP       0.463000
     49 H24          8.8640     2.6980     0.9730 ho         1 7KP       0.466000
     50 OBB          8.9910     1.7440     0.7820 oh         1 7KP      -0.532100
@<TRIPOS>BOND
     1     1     2 1   
     2     1    21 1   
     3     1    25 1   
     4     1    28 1   
     5     2     3 1   
     6     2    22 1   
     7     2    29 1   
     8     3     4 1   
     9     3    23 1   
    10     3    30 1   
    11     4     5 1   
    12     4    24 1   
    13     4    31 1   
    14     5     6 1   
    15     5    25 1   
    16     5    32 1   
    17     6    26 1   
    18     6    33 1   
    19     6    34 1   
    20     7     8 ar  
    21     7    12 ar  
    22     7    21 1   
    23     8     9 ar  
    24     8    35 1   
    25     9    10 ar  
    26     9    27 1   
    27    10    11 ar  
    28    10    36 1   
    29    11    12 ar  
    30    11    13 1   
    31    12    37 1   
    32    13    14 2   
    33    13    38 1   
    34    14    20 1   
    35    14    39 1   
    36    15    16 ar  
    37    15    20 ar  
    38    15    40 1   
    39    16    17 ar  
    40    16    41 1   
    41    17    18 ar  
    42    17    50 1   
    43    18    19 ar  
    44    18    42 1   
    45    19    20 ar  
    46    19    43 1   
    47    22    44 1   
    48    23    45 1   
    49    24    46 1   
    50    26    47 1   
    51    27    48 1   
    52    49    50 1   
@<TRIPOS>SUBSTRUCTURE
     1 7KP         1 TEMP              0 ****  ****    0 ROOT
