@<TRIPOS>MOLECULE
7KP
   50    52     1     0     0
SMALL
bcc


@<TRIPOS>ATOM
      1 C1          -3.2830    -0.1590    -0.9810 c6         1 7KP       0.316900
      2 C2          -4.1020     1.0850    -1.3320 c6         1 7KP       0.097100
      3 C3          -4.3920     1.8890    -0.0720 c6         1 7KP       0.113100
      4 C4          -5.0480     0.9950     0.9730 c6         1 7KP       0.125100
      5 C5          -4.1950    -0.2500     1.2190 c6         1 7KP       0.147100
      6 C6          -4.9080    -1.2450     2.1110 c3         1 7KP       0.147400
      7 CAG         -0.9680    -0.5700    -0.5300 ca         1 7KP       0.173100
      8 CAH         -1.0820    -1.9500    -0.6100 ca         1 7KP      -0.230000
      9 CAI          0.0840    -2.7210    -0.5800 ca         1 7KP       0.169100
     10 CAJ          1.3320    -2.1340    -0.4510 ca         1 7KP      -0.248000
     11 CAK          1.4390    -0.7420    -0.3550 ca         1 7KP       0.018200
     12 CAL          0.2830     0.0310    -0.4000 ca         1 7KP      -0.187000
     13 CAM          2.7180    -0.0480    -0.2210 ce         1 7KP      -0.112200
     14 CAN          3.9270    -0.6210    -0.1330 cf         1 7KP      -0.085200
     15 CAO          5.3400     1.4570     0.0660 ca         1 7KP      -0.075000
     16 CAP          6.5790     2.0580     0.1810 ca         1 7KP      -0.196000
     17 CAQ          7.7370     1.2810     0.2300 ca         1 7KP       0.145100
     18 CAR          7.6280    -0.1060     0.1650 ca         1 7KP      -0.196000
     19 CAS          6.3800    -0.6930     0.0510 ca         1 7KP      -0.075000
     20 CAT          5.2070     0.0660    -0.0040 ca         1 7KP      -0.093800
     21 O1          -2.0170     0.2830    -0.5650 os         1 7KP      -0.342900
     22 O2          -3.4420     1.9160    -2.2500 oh         1 7KP      -0.582800
     23 O3          -5.2810     2.9520    -0.3270 oh         1 7KP      -0.609800
     24 O4          -5.1990     1.6630     2.2010 oh         1 7KP      -0.592800
     25 O5          -3.9310    -0.9120    -0.0100 os         1 7KP      -0.407600
     26 O6          -4.0470    -2.3280     2.3640 oh         1 7KP      -0.583800
     27 OBA         -0.0790    -4.0550    -0.6720 oh         1 7KP      -0.493100
     28 H1          -3.1870    -0.8150    -1.8550 h2         1 7KP       0.080700
     29 H2          -5.0570     0.7260    -1.7390 h1         1 7KP       0.057700
     30 H3          -3.4450     2.2680     0.3410 h1         1 7KP       0.074700
     31 H4          -6.0250     0.6710     0.5780 h1         1 7KP       0.046700
     32 H5          -3.2560     0.0510     1.7030 h1         1 7KP       0.080700
     33 H6          -5.1970    -0.7320     3.0350 h1         1 7KP       0.034200
     34 H7          -5.8360    -1.5630     1.6160 h1         1 7KP       0.034200
     35 H8          -2.0370    -2.4520    -0.6720 ha         1 7KP       0.167000
     36 H9           2.2150    -2.7620    -0.4280 ha         1 7KP       0.131000
     37 H10          0.3490     1.1110    -0.3410 ha         1 7KP       0.146000
     38 H11          2.6400     1.0340    -0.1940 ha         1 7KP       0.124000
     39 H13          4.0020    -1.7040    -0.1580 ha         1 7KP       0.119000
     40 H15          4.4650     2.0940     0.0320 ha         1 7KP       0.131500
     41 H16          6.6460     3.1400     0.2310 ha         1 7KP       0.139000
     42 H17          8.5180    -0.7210     0.2040 ha         1 7KP       0.139000
     43 H18          6.3140    -1.7730     0.0020 ha         1 7KP       0.131500
     44 H19         -3.5760     1.5700    -3.1370 ho         1 7KP       0.412000
     45 H20         -4.8350     3.5950    -0.8870 ho         1 7KP       0.426000
     46 H21         -5.7440     2.4420     2.0530 ho         1 7KP       0.425000
     47 H22         -4.4950    -2.9250     2.9700 ho         1 7KP       0.404000
     48 H23          0.7760    -4.4990    -0.6420 ho         1 7KP       0.424000
     49 H24          8.9180     2.7770     0.3580 ho         1 7KP       0.427000
     50 OBB          8.9670     1.8150     0.3370 oh         1 7KP      -0.493100
@<TRIPOS>BOND
     1     1     2 1   
     2     1    21 1   
     3     1    25 1   
     4     1    28 1   
     5     2     3 1   
     6     2    22 1   
     7     2    29 1   
     8     3     4 1   
     9     3    23 1   
    10     3    30 1   
    11     4     5 1   
    12     4    24 1   
    13     4    31 1   
    14     5     6 1   
    15     5    25 1   
    16     5    32 1   
    17     6    26 1   
    18     6    33 1   
    19     6    34 1   
    20     7     8 ar  
    21     7    12 ar  
    22     7    21 1   
    23     8     9 ar  
    24     8    35 1   
    25     9    10 ar  
    26     9    27 1   
    27    10    11 ar  
    28    10    36 1   
    29    11    12 ar  
    30    11    13 1   
    31    12    37 1   
    32    13    14 2   
    33    13    38 1   
    34    14    20 1   
    35    14    39 1   
    36    15    16 ar  
    37    15    20 ar  
    38    15    40 1   
    39    16    17 ar  
    40    16    41 1   
    41    17    18 ar  
    42    17    50 1   
    43    18    19 ar  
    44    18    42 1   
    45    19    20 ar  
    46    19    43 1   
    47    22    44 1   
    48    23    45 1   
    49    24    46 1   
    50    26    47 1   
    51    27    48 1   
    52    49    50 1   
@<TRIPOS>SUBSTRUCTURE
     1 7KP         1 TEMP              0 ****  ****    0 ROOT
