@<TRIPOS>MOLECULE
7KQ
   73    78     1     0     0
SMALL
abcg2


@<TRIPOS>ATOM
      1 C13          8.3650    34.6960    28.9860 ca         1 7KQ       0.067000
      2 C18          8.6920    33.8430    26.3440 ca         1 7KQ      -0.182000
      3 C17          8.2750    35.1800    26.6020 ca         1 7KQ       0.355000
      4 C16          8.1260    35.5850    27.9210 ca         1 7KQ      -0.208000
      5 C15          8.9680    32.4820    29.8340 ca         1 7KQ       0.618900
      6 C19          8.9270    32.9680    27.3680 ca         1 7KQ      -0.036000
      7 C22          4.8320    38.6290    22.3190 ca         1 7KQ      -0.146000
      8 C23          5.8260    39.4720    21.8530 ca         1 7KQ       0.034700
      9 C24          5.6940    39.9870    20.5500 ca         1 7KQ      -0.288500
     10 C11          8.4680    34.1650    31.3230 ca         1 7KQ       0.381900
     11 C12          8.2250    35.0870    30.3450 ca         1 7KQ      -0.219000
     12 C27          3.7600    38.2420    21.5130 ca         1 7KQ       0.051000
     13 C33          8.1700    40.1240    19.2160 cx         1 7KQ      -0.416700
     14 C1           4.2160    37.4820    27.8240 ca         1 7KQ      -0.100000
     15 C2           5.4690    37.7350    27.2760 ca         1 7KQ      -0.094000
     16 C3           5.8970    37.0360    26.1520 ca         1 7KQ      -0.120300
     17 C4           5.0510    36.0860    25.5770 ca         1 7KQ      -0.078000
     18 C5           3.7920    35.8280    26.1110 ca         1 7KQ      -0.076300
     19 C6           3.3880    36.5300    27.2500 ca         1 7KQ      -0.085000
     20 C7           7.3140    37.2450    25.6160 c3         1 7KQ       0.210800
     21 N8           8.0670    36.0130    25.5340 nu         1 7KQ      -0.960200
     22 C9           7.3200    37.8540    24.2000 c          1 7KQ       0.596100
     23 N10          8.8270    32.8770    31.0910 nb         1 7KQ      -0.770000
     24 C14          8.7610    33.3570    28.7180 ca         1 7KQ      -0.169000
     25 N20          9.3750    31.1840    29.6400 nv         1 7KQ      -1.051900
     26 O21          7.6140    37.1490    23.2330 o          1 7KQ      -0.614100
     27 C25          4.6210    39.6080    19.7450 ca         1 7KQ       0.005000
     28 C26          3.6590    38.7300    20.2130 ca         1 7KQ      -0.171000
     29 N28          2.8310    37.2970    21.9660 ns         1 7KQ      -0.156000
     30 C29          7.0490    39.7300    22.7150 c3         1 7KQ       0.119300
     31 N30          6.9970    39.1580    24.0550 n          1 7KQ      -0.396800
     32 C31          6.5500    40.0340    25.1340 c3         1 7KQ       0.089300
     33 O34          6.1920    41.7260    18.6720 o          1 7KQ      -0.538500
     34 O35          7.3700    42.0260    20.8340 o          1 7KQ      -0.538500
     35 C36          9.4240    39.9210    20.0180 cx         1 7KQ      -0.062900
     36 C37          9.4470    40.8160    18.8180 cx         1 7KQ      -0.062900
     37 C38          2.8510    34.8220    25.4950 c3         1 7KQ      -0.060100
     38 C39          2.4990    37.0960    23.2790 c          1 7KQ       0.644100
     39 O40          1.9940    35.8610    23.4320 os         1 7KQ      -0.468100
     40 O41          2.6270    37.9150    24.1640 o          1 7KQ      -0.500000
     41 C42          1.6490    35.4270    24.7680 c3         1 7KQ       0.185600
     42 H52          8.8190    33.5260    25.3160 ha         1 7KQ       0.114000
     43 H51          7.8210    36.5930    28.1580 ha         1 7KQ       0.115000
     44 H53          9.2490    31.9640    27.1230 ha         1 7KQ       0.107000
     45 H56          4.9060    38.2230    23.3130 ha         1 7KQ       0.139000
     46 H49          8.3710    34.4380    32.3690 h4         1 7KQ       0.012100
     47 H50          7.9300    36.0980    30.5940 ha         1 7KQ       0.119000
     48 H65          7.7960    39.3190    18.5980 h1         1 7KQ       0.126700
     49 H43          3.8970    38.0170    28.7100 ha         1 7KQ       0.118000
     50 H44          6.1240    38.4600    27.7410 ha         1 7KQ       0.109000
     51 H45          5.3840    35.5310    24.7070 ha         1 7KQ       0.117000
     52 H46          2.4160    36.3270    27.6840 ha         1 7KQ       0.111000
     53 H47          7.8290    37.9360    26.2870 h1         1 7KQ       0.076700
     54 H48          8.0720    35.6020    24.6110 hn         1 7KQ       0.504000
     55 H54          9.2790    30.5890    30.4490 hn         1 7KQ       0.467500
     56 H55          9.1330    30.7350    28.7710 hn         1 7KQ       0.467500
     57 H57          4.5390    40.0110    18.7460 ha         1 7KQ       0.144000
     58 H58          2.8350    38.4290    19.5800 ha         1 7KQ       0.125000
     59 H59          2.4970    36.6160    21.3000 hn         1 7KQ       0.172000
     60 H60          7.9150    39.3110    22.2060 h1         1 7KQ       0.088200
     61 H61          7.2160    40.7970    22.8170 h1         1 7KQ       0.088200
     62 H63          7.0480    39.7920    26.0680 h1         1 7KQ       0.050700
     63 H64          6.8090    41.0580    24.8720 h1         1 7KQ       0.050700
     64 H62          5.4710    39.9690    25.2810 h1         1 7KQ       0.050700
     65 H67          9.8770    38.9410    19.9580 hc         1 7KQ       0.087450
     66 H66          9.4820    40.4040    20.9830 hc         1 7KQ       0.087450
     67 H69          9.9110    40.4680    17.9050 hc         1 7KQ       0.087450
     68 H68          9.5150    41.8800    18.9960 hc         1 7KQ       0.087450
     69 H70          2.4430    34.1870    26.2870 hc         1 7KQ       0.062700
     70 H71          3.3830    34.1680    24.8020 hc         1 7KQ       0.062700
     71 H73          1.2210    36.2610    25.3210 h1         1 7KQ       0.068700
     72 H72          0.8870    34.6670    24.6080 h1         1 7KQ       0.068700
     73 S32          6.8500    41.1250    19.8190 sy         1 7KQ       1.123500
@<TRIPOS>BOND
     1     1     4 ar  
     2     1    11 ar  
     3     1    24 ar  
     4     2     3 ar  
     5     2     6 ar  
     6     2    42 1   
     7     3     4 ar  
     8     3    21 1   
     9     4    43 1   
    10     5    23 ar  
    11     5    24 ar  
    12     5    25 1   
    13     6    24 ar  
    14     6    44 1   
    15     7     8 ar  
    16     7    12 ar  
    17     7    45 1   
    18     8     9 ar  
    19     8    30 1   
    20     9    27 ar  
    21     9    73 1   
    22    10    11 ar  
    23    10    23 ar  
    24    10    46 1   
    25    11    47 1   
    26    12    28 ar  
    27    12    29 1   
    28    13    35 1   
    29    13    36 1   
    30    13    48 1   
    31    13    73 1   
    32    14    15 ar  
    33    14    19 ar  
    34    14    49 1   
    35    15    16 ar  
    36    15    50 1   
    37    16    17 ar  
    38    16    20 1   
    39    17    18 ar  
    40    17    51 1   
    41    18    19 ar  
    42    18    37 1   
    43    19    52 1   
    44    20    21 1   
    45    20    22 1   
    46    20    53 1   
    47    21    54 1   
    48    22    26 2   
    49    22    31 1   
    50    25    55 1   
    51    25    56 1   
    52    27    28 ar  
    53    27    57 1   
    54    28    58 1   
    55    29    38 1   
    56    29    59 1   
    57    30    31 1   
    58    30    60 1   
    59    30    61 1   
    60    31    32 1   
    61    32    62 1   
    62    32    63 1   
    63    32    64 1   
    64    33    73 2   
    65    34    73 2   
    66    35    36 1   
    67    35    65 1   
    68    35    66 1   
    69    36    67 1   
    70    36    68 1   
    71    37    41 1   
    72    37    69 1   
    73    37    70 1   
    74    38    39 1   
    75    38    40 2   
    76    39    41 1   
    77    41    71 1   
    78    41    72 1   
@<TRIPOS>SUBSTRUCTURE
     1 7KQ         1 TEMP              0 ****  ****    0 ROOT
