@<TRIPOS>MOLECULE
7KQ
   73    78     1     0     0
SMALL
No Charge or Current Charge


@<TRIPOS>ATOM
      1 C13          8.5110    34.6830    28.9890 ca         1 7KQ       0.067000
      2 C18          8.5190    33.8290    26.3210 ca         1 7KQ      -0.182000
      3 C17          8.3820    35.1940    26.6160 ca         1 7KQ       0.355000
      4 C16          8.3860    35.6210    27.9530 ca         1 7KQ      -0.208000
      5 C15          8.7610    32.4300    29.7930 ca         1 7KQ       0.618900
      6 C19          8.6470    32.8840    27.3550 ca         1 7KQ      -0.036000
      7 C22          4.7030    38.8150    22.3730 ca         1 7KQ      -0.146000
      8 C23          5.7120    39.6490    21.8420 ca         1 7KQ       0.034700
      9 C24          5.6410    40.0070    20.4650 ca         1 7KQ      -0.288500
     10 C11          8.6400    34.1080    31.3360 ca         1 7KQ       0.381900
     11 C12          8.5130    35.0820    30.3330 ca         1 7KQ      -0.219000
     12 C27          3.6770    38.2930    21.5700 ca         1 7KQ       0.051000
     13 C33          8.2470    39.9530    19.3050 cx         1 7KQ      -0.416700
     14 C1           4.3140    37.2780    27.8460 ca         1 7KQ      -0.100000
     15 C2           5.5760    37.5970    27.3200 ca         1 7KQ      -0.094000
     16 C3           6.0160    37.0160    26.1140 ca         1 7KQ      -0.120300
     17 C4           5.1700    36.1030    25.4430 ca         1 7KQ      -0.078000
     18 C5           3.9030    35.7720    25.9710 ca         1 7KQ      -0.076300
     19 C6           3.4830    36.3660    27.1770 ca         1 7KQ      -0.085000
     20 C7           7.4170    37.3470    25.5780 c3         1 7KQ       0.210800
     21 N8           8.2510    36.1050    25.5720 nu         1 7KQ      -0.960200
     22 C9           7.3690    38.0640    24.1660 c          1 7KQ       0.596100
     23 N10          8.7610    32.7880    31.0700 nb         1 7KQ      -0.770000
     24 C14          8.6390    33.3120    28.7000 ca         1 7KQ      -0.169000
     25 N20          8.8740    31.0990    29.7070 nv         1 7KQ      -1.051900
     26 O21          7.6940    37.4600    23.1450 o          1 7KQ      -0.614100
     27 C25          4.6010    39.4830    19.6640 ca         1 7KQ       0.005000
     28 C26          3.6380    38.6210    20.2100 ca         1 7KQ      -0.171000
     29 N28          2.7520    37.3590    22.0900 ns         1 7KQ      -0.156000
     30 C29          6.8660    40.1010    22.7600 c3         1 7KQ       0.119300
     31 N30          6.9570    39.4230    24.0830 n          1 7KQ      -0.396800
     32 C31          6.4760    40.1720    25.2680 c3         1 7KQ       0.089300
     33 O34          6.3280    41.4980    18.3490 o          1 7KQ      -0.538500
     34 O35          7.3390    42.0860    20.6170 o          1 7KQ      -0.538500
     35 C36          9.5270    40.0950    20.1120 cx         1 7KQ      -0.062900
     36 C37          9.4720    40.5970    18.6840 cx         1 7KQ      -0.062900
     37 C38          3.0000    34.7490    25.2790 c3         1 7KQ      -0.060100
     38 C39          2.3650    37.1370    23.3940 c          1 7KQ       0.644100
     39 O40          1.7980    35.8960    23.4860 os         1 7KQ      -0.468100
     40 O41          2.5180    37.9140    24.3250 o          1 7KQ      -0.500000
     41 C42          1.6320    35.3010    24.7890 c3         1 7KQ       0.185600
     42 H52          8.5220    33.4950    25.2880 ha         1 7KQ       0.114000
     43 H51          8.2950    36.6760    28.1880 ha         1 7KQ       0.115000
     44 H53          8.7530    31.8320    27.1010 ha         1 7KQ       0.107000
     45 H56          4.7420    38.5260    23.4160 ha         1 7KQ       0.139000
     46 H49          8.6430    34.3930    32.3880 h4         1 7KQ       0.012100
     47 H50          8.4170    36.1290    30.6060 ha         1 7KQ       0.119000
     48 H65          7.9030    38.9860    18.9460 h1         1 7KQ       0.126700
     49 H43          3.9850    37.7290    28.7790 ha         1 7KQ       0.118000
     50 H44          6.2140    38.2940    27.8600 ha         1 7KQ       0.109000
     51 H45          5.5080    35.6370    24.5200 ha         1 7KQ       0.117000
     52 H46          2.5150    36.1140    27.6040 ha         1 7KQ       0.111000
     53 H47          7.8890    38.0640    26.2620 h1         1 7KQ       0.076700
     54 H48          8.4130    35.7130    24.6410 hn         1 7KQ       0.504000
     55 H54          8.7310    30.6180    30.5860 hn         1 7KQ       0.467500
     56 H55          8.4970    30.6500    28.8820 hn         1 7KQ       0.467500
     57 H57          4.5380    39.7230    18.6030 ha         1 7KQ       0.144000
     58 H58          2.8610    38.2080    19.5710 ha         1 7KQ       0.125000
     59 H59          2.4500    36.6510    21.4350 hn         1 7KQ       0.172000
     60 H60          7.8160    39.9300    22.2420 h1         1 7KQ       0.088200
     61 H61          6.7800    41.1830    22.9190 h1         1 7KQ       0.088200
     62 H63          7.2200    40.1320    26.0730 h1         1 7KQ       0.050700
     63 H64          6.3020    41.2250    25.0170 h1         1 7KQ       0.050700
     64 H62          5.5290    39.7420    25.6190 h1         1 7KQ       0.050700
     65 H67         10.1050    39.1950    20.3060 hc         1 7KQ       0.087450
     66 H66          9.5910    40.8440    20.8990 hc         1 7KQ       0.087450
     67 H69         10.0190    40.0320    17.9310 hc         1 7KQ       0.087450
     68 H68          9.4770    41.6740    18.5280 hc         1 7KQ       0.087450
     69 H70          2.7950    33.9370    25.9880 hc         1 7KQ       0.062700
     70 H71          3.5170    34.2760    24.4360 hc         1 7KQ       0.062700
     71 H73          1.2040    36.0060    25.5150 h1         1 7KQ       0.068700
     72 H72          0.9360    34.4560    24.7100 h1         1 7KQ       0.068700
     73 S32          6.8590    41.0860    19.6550 sy         1 7KQ       1.123500
@<TRIPOS>BOND
     1     1     4 ar  
     2     1    11 ar  
     3     1    24 ar  
     4     2     3 ar  
     5     2     6 ar  
     6     2    42 1   
     7     3     4 ar  
     8     3    21 1   
     9     4    43 1   
    10     5    23 ar  
    11     5    24 ar  
    12     5    25 1   
    13     6    24 ar  
    14     6    44 1   
    15     7     8 ar  
    16     7    12 ar  
    17     7    45 1   
    18     8     9 ar  
    19     8    30 1   
    20     9    27 ar  
    21     9    73 1   
    22    10    11 ar  
    23    10    23 ar  
    24    10    46 1   
    25    11    47 1   
    26    12    28 ar  
    27    12    29 1   
    28    13    35 1   
    29    13    36 1   
    30    13    48 1   
    31    13    73 1   
    32    14    15 ar  
    33    14    19 ar  
    34    14    49 1   
    35    15    16 ar  
    36    15    50 1   
    37    16    17 ar  
    38    16    20 1   
    39    17    18 ar  
    40    17    51 1   
    41    18    19 ar  
    42    18    37 1   
    43    19    52 1   
    44    20    21 1   
    45    20    22 1   
    46    20    53 1   
    47    21    54 1   
    48    22    26 2   
    49    22    31 1   
    50    25    55 1   
    51    25    56 1   
    52    27    28 ar  
    53    27    57 1   
    54    28    58 1   
    55    29    38 1   
    56    29    59 1   
    57    30    31 1   
    58    30    60 1   
    59    30    61 1   
    60    31    32 1   
    61    32    62 1   
    62    32    63 1   
    63    32    64 1   
    64    33    73 2   
    65    34    73 2   
    66    35    36 1   
    67    35    65 1   
    68    35    66 1   
    69    36    67 1   
    70    36    68 1   
    71    37    41 1   
    72    37    69 1   
    73    37    70 1   
    74    38    39 1   
    75    38    40 2   
    76    39    41 1   
    77    41    71 1   
    78    41    72 1   
@<TRIPOS>SUBSTRUCTURE
     1 7KQ         1 TEMP              0 ****  ****    0 ROOT
