@<TRIPOS>MOLECULE
7KR
   72    77     1     0     0
SMALL
No Charge or Current Charge


@<TRIPOS>ATOM
      1 C13          3.6320    38.1300    21.7360 ca         1 7KR       0.036000
      2 C18          8.2110    39.7750    19.4570 cx         1 7KR      -0.410700
      3 C16          5.5790    39.8140    20.5550 ca         1 7KR      -0.280500
      4 C19          9.4650    40.0110    20.2810 cx         1 7KR      -0.062400
      5 C20          9.4290    40.4200    18.8230 cx         1 7KR      -0.062400
      6 C24          3.0030    34.9400    24.6290 c3         1 7KR      -0.023100
      7 C11          4.5860    39.1860    19.7670 ca         1 7KR       0.004000
      8 C12          3.6340    38.3370    20.3520 ca         1 7KR      -0.173000
      9 C34          8.4740    35.6480    28.0030 ca         1 7KR      -0.212000
     10 C27          1.8090    35.7660    24.0770 c3         1 7KR      -0.159400
     11 C33          8.6140    34.6960    29.0250 ca         1 7KR       0.068000
     12 C1           7.4020    37.3490    25.6390 c3         1 7KR       0.213800
     13 C2           5.9970    36.8980    26.0650 ca         1 7KR      -0.122300
     14 C3           5.1840    36.1380    25.1960 ca         1 7KR      -0.084000
     15 C4           3.8940    35.7230    25.5920 ca         1 7KR      -0.090300
     16 C5           3.4230    36.0610    26.8740 ca         1 7KR      -0.081000
     17 C6           4.2280    36.8110    27.7470 ca         1 7KR      -0.102000
     18 C7           5.5070    37.2290    27.3440 ca         1 7KR      -0.089000
     19 C8           6.7190    40.1270    22.8810 c3         1 7KR       0.137300
     20 N9           6.8680    39.4390    24.1930 n          1 7KR      -0.401800
     21 C10          5.6160    39.5710    21.9590 ca         1 7KR       0.037700
     22 C14          4.6130    38.7530    22.5240 ca         1 7KR      -0.147000
     23 N15          2.7230    37.2150    22.3150 ns         1 7KR      -0.170000
     24 S17          6.7780    40.8790    19.7030 sy         1 7KR       1.123500
     25 O21          7.2000    41.9550    20.6090 o          1 7KR      -0.540000
     26 O22          6.2640    41.1870    18.3630 o          1 7KR      -0.540000
     27 C25          2.2730    37.1520    23.6220 c          1 7KR       0.606100
     28 O26          2.2760    38.1160    24.3810 o          1 7KR      -0.562100
     29 C29          8.4600    35.2390    26.6610 ca         1 7KR       0.361000
     30 C30          8.6070    33.8800    26.3450 ca         1 7KR      -0.183000
     31 C31          8.7500    32.9220    27.3640 ca         1 7KR      -0.035000
     32 C32          8.7500    33.3310    28.7150 ca         1 7KR      -0.170000
     33 C35          8.8870    32.4340    29.7940 ca         1 7KR       0.619900
     34 N36          8.8950    32.7740    31.0770 nb         1 7KR      -0.770000
     35 C37          8.7670    34.0890    31.3620 ca         1 7KR       0.382900
     36 C38          8.6250    35.0770    30.3740 ca         1 7KR      -0.220000
     37 N39          9.0090    31.1060    29.6890 nv         1 7KR      -1.051900
     38 C40          7.3800    38.1160    24.2520 c          1 7KR       0.594100
     39 O41          7.7890    37.5730    23.2270 o          1 7KR      -0.615100
     40 H53          7.9070    38.7760    19.1530 h1         1 7KR       0.126700
     41 H54         10.0660    39.1450    20.5470 hc         1 7KR       0.086700
     42 H55          9.4860    40.8100    21.0200 hc         1 7KR       0.086700
     43 H57         10.0120    39.8280    18.1210 hc         1 7KR       0.086700
     44 H56          9.4030    41.4850    18.6000 hc         1 7KR       0.086700
     45 H59          7.1670    40.1940    26.1580 h1         1 7KR       0.049700
     46 H58          6.0650    41.1660    25.1560 h1         1 7KR       0.049700
     47 H60          5.5070    39.6120    25.8150 h1         1 7KR       0.049700
     48 H61          2.6160    34.0400    25.1230 hc         1 7KR       0.054700
     49 H62          3.6000    34.5790    23.7810 hc         1 7KR       0.054700
     50 H49          4.5530    39.3370    18.6890 ha         1 7KR       0.143000
     51 H50          2.8940    37.8430    19.7250 ha         1 7KR       0.122000
     52 H63          1.0560    35.8780    24.8660 hc         1 7KR       0.070700
     53 H64          1.4000    35.2100    23.2260 hc         1 7KR       0.070700
     54 H42          7.7770    38.0680    26.3790 h1         1 7KR       0.076700
     55 H43          5.5540    35.8750    24.2070 ha         1 7KR       0.119000
     56 H44          2.4310    35.7490    27.1910 ha         1 7KR       0.115000
     57 H45          3.8590    37.0710    28.7360 ha         1 7KR       0.120000
     58 H46          6.1180    37.8100    28.0320 ha         1 7KR       0.112000
     59 H47          7.6850    40.0520    22.3700 h1         1 7KR       0.081200
     60 H48          6.5290    41.1950    23.0470 h1         1 7KR       0.081200
     61 H51          4.6210    38.5580    23.5900 ha         1 7KR       0.139000
     62 H52          2.5500    36.3880    21.7580 hn         1 7KR       0.156000
     63 H66          8.6030    33.5600    25.3070 ha         1 7KR       0.114000
     64 H67          8.8620    31.8740    27.0950 ha         1 7KR       0.107000
     65 H69          8.7770    34.3600    32.4180 h4         1 7KR       0.012100
     66 H70          8.5240    36.1190    30.6630 ha         1 7KR       0.119000
     67 H72          8.8760    30.6110    30.5630 hn         1 7KR       0.467500
     68 H71          8.6280    30.6650    28.8620 hn         1 7KR       0.467500
     69 N28          8.3150    36.1650    25.6330 nu         1 7KR      -0.964200
     70 C23          6.3740    40.1420    25.4010 c3         1 7KR       0.092300
     71 H68          8.3790    36.6990    28.2520 ha         1 7KR       0.113000
     72 H65          8.5080    35.7940    24.7010 hn         1 7KR       0.506000
@<TRIPOS>BOND
     1     1     8 ar  
     2     1    22 ar  
     3     1    23 1   
     4     2     4 1   
     5     2     5 1   
     6     2    24 1   
     7     2    40 1   
     8     3     7 ar  
     9     3    21 ar  
    10     3    24 1   
    11     4     5 1   
    12     4    41 1   
    13     4    42 1   
    14     5    43 1   
    15     5    44 1   
    16     6    10 1   
    17     6    15 1   
    18     6    48 1   
    19     6    49 1   
    20     7     8 ar  
    21     7    50 1   
    22     8    51 1   
    23     9    11 ar  
    24     9    29 ar  
    25     9    71 1   
    26    10    27 1   
    27    10    52 1   
    28    10    53 1   
    29    11    32 ar  
    30    11    36 ar  
    31    12    13 1   
    32    12    38 1   
    33    12    54 1   
    34    12    69 1   
    35    13    14 ar  
    36    13    18 ar  
    37    14    15 ar  
    38    14    55 1   
    39    15    16 ar  
    40    16    17 ar  
    41    16    56 1   
    42    17    18 ar  
    43    17    57 1   
    44    18    58 1   
    45    19    20 1   
    46    19    21 1   
    47    19    59 1   
    48    19    60 1   
    49    20    38 1   
    50    20    70 1   
    51    21    22 ar  
    52    22    61 1   
    53    23    27 1   
    54    23    62 1   
    55    24    25 2   
    56    24    26 2   
    57    27    28 2   
    58    29    30 ar  
    59    29    69 1   
    60    30    31 ar  
    61    30    63 1   
    62    31    32 ar  
    63    31    64 1   
    64    32    33 ar  
    65    33    34 ar  
    66    33    37 1   
    67    34    35 ar  
    68    35    36 ar  
    69    35    65 1   
    70    36    66 1   
    71    37    67 1   
    72    37    68 1   
    73    38    39 2   
    74    45    70 1   
    75    46    70 1   
    76    47    70 1   
    77    69    72 1   
@<TRIPOS>SUBSTRUCTURE
     1 7KR         1 TEMP              0 ****  ****    0 ROOT
