@<TRIPOS>MOLECULE
7KR
   72    77     1     0     0
SMALL
abcg2


@<TRIPOS>ATOM
      1 C13          3.7090    38.0200    21.7770 ca         1 7KR       0.036000
      2 C18          8.3700    39.4540    19.6800 cx         1 7KR      -0.410700
      3 C16          5.7220    39.5530    20.6330 ca         1 7KR      -0.280500
      4 C19          9.5090    39.5620    20.6520 cx         1 7KR      -0.062400
      5 C20          9.6750    40.0750    19.2560 cx         1 7KR      -0.062400
      6 C24          2.7810    35.1690    24.7450 c3         1 7KR      -0.023100
      7 C11          4.8070    38.8750    19.8280 ca         1 7KR       0.004000
      8 C12          3.8090    38.0990    20.3900 ca         1 7KR      -0.173000
      9 C34          8.1600    35.6430    27.8500 ca         1 7KR      -0.212000
     10 C27          1.6290    36.0430    24.1850 c3         1 7KR      -0.159400
     11 C33          8.4980    34.6870    28.8280 ca         1 7KR       0.068000
     12 C1           7.2020    37.4410    25.6870 c3         1 7KR       0.213800
     13 C2           5.7790    37.0860    26.1180 ca         1 7KR      -0.122300
     14 C3           4.9680    36.3070    25.2910 ca         1 7KR      -0.084000
     15 C4           3.6860    35.9310    25.6820 ca         1 7KR      -0.090300
     16 C5           3.2250    36.3310    26.9390 ca         1 7KR      -0.081000
     17 C6           4.0210    37.1080    27.7680 ca         1 7KR      -0.102000
     18 C7           5.2930    37.4920    27.3550 ca         1 7KR      -0.089000
     19 C8           6.6710    40.0800    22.9700 c3         1 7KR       0.137300
     20 N9           6.7220    39.4430    24.2870 n          1 7KR      -0.401800
     21 C10          5.6510    39.4560    22.0330 ca         1 7KR       0.037700
     22 C14          4.6150    38.7150    22.5760 ca         1 7KR      -0.147000
     23 N15          2.7630    37.1630    22.3580 ns         1 7KR      -0.170000
     24 S17          6.9580    40.5070    19.7820 sy         1 7KR       1.123500
     25 O21          7.2970    41.6800    20.5700 o          1 7KR      -0.540000
     26 O22          6.4810    40.7210    18.4270 o          1 7KR      -0.540000
     27 C25          2.1910    37.3140    23.5930 c          1 7KR       0.606100
     28 O26          2.2030    38.3770    24.2000 o          1 7KR      -0.562100
     29 C29          8.3280    35.3750    26.4990 ca         1 7KR       0.361000
     30 C30          8.8610    34.1100    26.1170 ca         1 7KR      -0.183000
     31 C31          9.1900    33.1710    27.0540 ca         1 7KR      -0.035000
     32 C32          9.0110    33.4200    28.4360 ca         1 7KR      -0.170000
     33 C35          9.3200    32.4730    29.4660 ca         1 7KR       0.619900
     34 N36          9.1690    32.7400    30.7550 nb         1 7KR      -0.770000
     35 C37          8.6960    33.9620    31.1060 ca         1 7KR       0.382900
     36 C38          8.3470    34.9390    30.2180 ca         1 7KR      -0.220000
     37 N39          9.8400    31.2410    29.1500 nv         1 7KR      -1.051900
     38 C40          7.2070    38.1860    24.3370 c          1 7KR       0.594100
     39 O41          7.6150    37.6140    23.3250 o          1 7KR      -0.615100
     40 H53          8.0990    38.4840    19.2830 h1         1 7KR       0.126700
     41 H54          9.9820    38.6320    20.9370 hc         1 7KR       0.086700
     42 H55          9.4350    40.3030    21.4350 hc         1 7KR       0.086700
     43 H57         10.2630    39.5100    18.5470 hc         1 7KR       0.086700
     44 H56          9.6970    41.1490    19.1250 hc         1 7KR       0.086700
     45 H59          6.6560    39.8650    26.3510 h1         1 7KR       0.049700
     46 H58          6.4120    41.2410    25.2850 h1         1 7KR       0.049700
     47 H60          5.1080    40.0600    25.5140 h1         1 7KR       0.049700
     48 H61          2.3300    34.3190    25.2610 hc         1 7KR       0.054700
     49 H62          3.3670    34.7730    23.9140 hc         1 7KR       0.054700
     50 H49          4.8830    38.9580    18.7530 ha         1 7KR       0.143000
     51 H50          3.1150    37.5560    19.7620 ha         1 7KR       0.122000
     52 H63          0.9430    36.3210    24.9830 hc         1 7KR       0.070700
     53 H64          1.0800    35.4720    23.4330 hc         1 7KR       0.070700
     54 H42          7.6410    38.0900    26.4470 h1         1 7KR       0.076700
     55 H43          5.3410    35.9900    24.3230 ha         1 7KR       0.119000
     56 H44          2.2320    36.0400    27.2620 ha         1 7KR       0.115000
     57 H45          3.6550    37.4140    28.7400 ha         1 7KR       0.120000
     58 H46          5.9120    38.1000    28.0030 ha         1 7KR       0.112000
     59 H47          7.6580    40.0250    22.5260 h1         1 7KR       0.081200
     60 H48          6.4410    41.1320    23.1210 h1         1 7KR       0.081200
     61 H51          4.5380    38.6190    23.6460 ha         1 7KR       0.139000
     62 H52          2.5550    36.3150    21.8510 hn         1 7KR       0.156000
     63 H66          8.9990    33.9010    25.0630 ha         1 7KR       0.114000
     64 H67          9.5980    32.2270    26.7150 ha         1 7KR       0.107000
     65 H69          8.5950    34.1320    32.1730 h4         1 7KR       0.012100
     66 H70          7.9640    35.8920    30.5610 ha         1 7KR       0.119000
     67 H72          9.8190    30.5710    29.9050 hn         1 7KR       0.467500
     68 H71          9.6230    30.8490    28.2490 hn         1 7KR       0.467500
     69 N28          8.0400    36.2760    25.5100 nu         1 7KR      -0.964200
     70 C23          6.1900    40.1850    25.4250 c3         1 7KR       0.092300
     71 H68          7.7700    36.5940    28.1810 ha         1 7KR       0.113000
     72 H65          8.1040    35.9650    24.5520 hn         1 7KR       0.506000
@<TRIPOS>BOND
     1     1     8 ar  
     2     1    22 ar  
     3     1    23 1   
     4     2     4 1   
     5     2     5 1   
     6     2    24 1   
     7     2    40 1   
     8     3     7 ar  
     9     3    21 ar  
    10     3    24 1   
    11     4     5 1   
    12     4    41 1   
    13     4    42 1   
    14     5    43 1   
    15     5    44 1   
    16     6    10 1   
    17     6    15 1   
    18     6    48 1   
    19     6    49 1   
    20     7     8 ar  
    21     7    50 1   
    22     8    51 1   
    23     9    11 ar  
    24     9    29 ar  
    25     9    71 1   
    26    10    27 1   
    27    10    52 1   
    28    10    53 1   
    29    11    32 ar  
    30    11    36 ar  
    31    12    13 1   
    32    12    38 1   
    33    12    54 1   
    34    12    69 1   
    35    13    14 ar  
    36    13    18 ar  
    37    14    15 ar  
    38    14    55 1   
    39    15    16 ar  
    40    16    17 ar  
    41    16    56 1   
    42    17    18 ar  
    43    17    57 1   
    44    18    58 1   
    45    19    20 1   
    46    19    21 1   
    47    19    59 1   
    48    19    60 1   
    49    20    38 1   
    50    20    70 1   
    51    21    22 ar  
    52    22    61 1   
    53    23    27 1   
    54    23    62 1   
    55    24    25 2   
    56    24    26 2   
    57    27    28 2   
    58    29    30 ar  
    59    29    69 1   
    60    30    31 ar  
    61    30    63 1   
    62    31    32 ar  
    63    31    64 1   
    64    32    33 ar  
    65    33    34 ar  
    66    33    37 1   
    67    34    35 ar  
    68    35    36 ar  
    69    35    65 1   
    70    36    66 1   
    71    37    67 1   
    72    37    68 1   
    73    38    39 2   
    74    45    70 1   
    75    46    70 1   
    76    47    70 1   
    77    69    72 1   
@<TRIPOS>SUBSTRUCTURE
     1 7KR         1 TEMP              0 ****  ****    0 ROOT
