@<TRIPOS>MOLECULE
7KS
   82    87     1     0     0
SMALL
No Charge or Current Charge


@<TRIPOS>ATOM
      1 C13          3.6680    38.2040    21.9040 ca         1 7KS       0.040000
      2 C18          8.1610    39.9230    19.5160 cx         1 7KS      -0.410700
      3 C16          5.5490    39.9170    20.6610 ca         1 7KS      -0.285500
      4 C19          9.4230    40.2020    20.3150 cx         1 7KS      -0.062900
      5 C20          9.3520    40.5870    18.8510 cx         1 7KS      -0.062900
      6 C23          6.4160    40.3530    25.4860 c3         1 7KS       0.091300
      7 C24          3.1140    35.0000    24.8980 c3         1 7KS       0.002600
      8 C11          4.5580    39.2520    19.9020 ca         1 7KS       0.007000
      9 C12          3.6380    38.3900    20.5170 ca         1 7KS      -0.178000
     10 C34          8.5360    35.8410    28.1120 ca         1 7KS      -0.204000
     11 C27          1.9290    35.8240    24.3020 c3         1 7KS      -0.156400
     12 C33          8.6410    34.8700    29.1260 ca         1 7KS       0.041000
     13 C1           7.4890    37.5800    25.7590 c3         1 7KS       0.218800
     14 C2           6.0980    37.1160    26.2190 ca         1 7KS      -0.156300
     15 C3           5.2910    36.3120    25.3880 ca         1 7KS      -0.054000
     16 C4           4.0200    35.8530    25.8180 ca         1 7KS      -0.106300
     17 C5           3.5670    36.2160    27.1090 ca         1 7KS       0.163100
     18 C6           4.3760    37.0220    27.9400 ca         1 7KS      -0.181000
     19 C7           5.6290    37.4670    27.4970 ca         1 7KS      -0.049000
     20 C8           6.7220    40.2960    22.9610 c3         1 7KS       0.135300
     21 N9           6.9050    39.6370    24.2850 n          1 7KS      -0.398800
     22 C10          5.6180    39.6970    22.0670 ca         1 7KS       0.038700
     23 C14          4.6470    38.8630    22.6630 ca         1 7KS      -0.152000
     24 N15          2.7910    37.2770    22.5130 ns         1 7KS      -0.169000
     25 S17          6.7070    40.9960    19.7710 sy         1 7KS       1.123500
     26 O21          6.1610    41.2710    18.4350 o          1 7KS      -0.539500
     27 O22          7.1190    42.0970    20.6520 o          1 7KS      -0.539500
     28 C25          2.3820    37.2100    23.8340 c          1 7KS       0.608100
     29 O26          2.3980    38.1750    24.5900 o          1 7KS      -0.564100
     30 N28          8.4080    36.4020    25.7530 nu         1 7KS      -0.964200
     31 C29          8.5260    35.4540    26.7640 ca         1 7KS       0.366000
     32 C30          8.6430    34.0990    26.4270 ca         1 7KS      -0.178000
     33 C31          8.7530    33.1210    27.4300 ca         1 7KS      -0.036000
     34 C32          8.7480    33.5030    28.7900 ca         1 7KS      -0.157000
     35 C35          8.8510    32.5720    29.8470 ca         1 7KS       0.609900
     36 N36          8.8540    32.8790    31.1390 nb         1 7KS      -0.752000
     37 C37          8.7530    34.1940    31.4560 ca         1 7KS       0.353900
     38 C38          8.6450    35.2180    30.4920 ca         1 7KS       0.049000
     39 N39          8.9430    31.2440    29.7070 nv         1 7KS      -1.044900
     40 C40          7.4380    38.3230    24.3590 c          1 7KS       0.594100
     41 O41          7.8440    37.7680    23.3390 o          1 7KS      -0.616100
     42 O42          2.3270    35.7660    27.5270 os         1 7KS      -0.353100
     43 F43          8.5440    36.5120    30.8850 f          1 7KS      -0.187000
     44 C44          1.7520    36.1330    28.7960 c3         1 7KS       0.102600
     45 C45          0.3590    35.4790    28.9010 c3         1 7KS       0.171300
     46 F46         -0.4730    35.9890    27.9620 f          1 7KS      -0.117000
     47 F47         -0.1850    35.7500    30.1100 f          1 7KS      -0.117000
     48 C48          3.8860    34.2290    23.7960 c3         1 7KS      -0.096100
     49 H59          7.8760    38.9120    19.2330 h1         1 7KS       0.126700
     50 H61         10.0500    39.3540    20.5820 hc         1 7KS       0.086950
     51 H60          9.4380    41.0120    21.0400 hc         1 7KS       0.086950
     52 H63          9.9370    39.9980    18.1480 hc         1 7KS       0.086950
     53 H62          9.2970    41.6470    18.6120 hc         1 7KS       0.086950
     54 H64          7.2150    40.4240    26.2350 h1         1 7KS       0.050367
     55 H66          6.0950    41.3700    25.2290 h1         1 7KS       0.050367
     56 H65          5.5580    39.8210    25.9160 h1         1 7KS       0.050367
     57 H67          2.6620    34.2120    25.5160 hc         1 7KS       0.070700
     58 H55          4.5020    39.3860    18.8220 ha         1 7KS       0.143000
     59 H56          2.9000    37.8690    19.9120 ha         1 7KS       0.121000
     60 H73          8.4640    36.8920    28.3680 ha         1 7KS       0.126000
     61 H68          1.1660    35.9540    25.0790 hc         1 7KS       0.075700
     62 H69          1.5140    35.2620    23.4580 hc         1 7KS       0.075700
     63 H49          7.8710    38.3120    26.4820 h1         1 7KS       0.078700
     64 H50          5.6690    36.0520    24.4030 ha         1 7KS       0.125000
     65 H51          4.0510    37.3110    28.9340 ha         1 7KS       0.125000
     66 H52          6.2390    38.0820    28.1560 ha         1 7KS       0.117000
     67 H53          7.6820    40.2320    22.4370 h1         1 7KS       0.082200
     68 H54          6.5110    41.3630    23.1090 h1         1 7KS       0.082200
     69 H57          4.6810    38.6860    23.7310 ha         1 7KS       0.139000
     70 H58          2.6080    36.4490    21.9610 hn         1 7KS       0.156000
     71 H70          8.6140    36.0450    24.8170 hn         1 7KS       0.509000
     72 H71          8.6420    33.7980    25.3830 ha         1 7KS       0.117000
     73 H72          8.8430    32.0760    27.1420 ha         1 7KS       0.111000
     74 H74          8.7570    34.4360    32.5180 h4         1 7KS       0.031100
     75 H76          8.7960    30.7270    30.5650 hn         1 7KS       0.467000
     76 H75          8.5650    30.8320    28.8630 hn         1 7KS       0.467000
     77 H78          2.3790    35.7760    29.6230 h1         1 7KS       0.066700
     78 H77          1.6470    37.2220    28.8780 h1         1 7KS       0.066700
     79 H79          0.4320    34.3940    28.7730 h2         1 7KS       0.073700
     80 H80          4.7190    33.6650    24.2310 hc         1 7KS       0.041033
     81 H81          3.2240    33.5120    23.2950 hc         1 7KS       0.041033
     82 H82          4.2840    34.9050    23.0300 hc         1 7KS       0.041033
@<TRIPOS>BOND
     1     1     9 ar  
     2     1    23 ar  
     3     1    24 1   
     4     2     4 1   
     5     2     5 1   
     6     2    25 1   
     7     2    49 1   
     8     3     8 ar  
     9     3    22 ar  
    10     3    25 1   
    11     4     5 1   
    12     4    50 1   
    13     4    51 1   
    14     5    52 1   
    15     5    53 1   
    16     6    21 1   
    17     6    54 1   
    18     6    55 1   
    19     6    56 1   
    20     7    11 1   
    21     7    16 1   
    22     7    48 1   
    23     7    57 1   
    24     8     9 ar  
    25     8    58 1   
    26     9    59 1   
    27    10    12 ar  
    28    10    31 ar  
    29    10    60 1   
    30    11    28 1   
    31    11    61 1   
    32    11    62 1   
    33    12    34 ar  
    34    12    38 ar  
    35    13    14 1   
    36    13    30 1   
    37    13    40 1   
    38    13    63 1   
    39    14    15 ar  
    40    14    19 ar  
    41    15    16 ar  
    42    15    64 1   
    43    16    17 ar  
    44    17    18 ar  
    45    17    42 1   
    46    18    19 ar  
    47    18    65 1   
    48    19    66 1   
    49    20    21 1   
    50    20    22 1   
    51    20    67 1   
    52    20    68 1   
    53    21    40 1   
    54    22    23 ar  
    55    23    69 1   
    56    24    28 1   
    57    24    70 1   
    58    25    26 2   
    59    25    27 2   
    60    28    29 2   
    61    30    31 1   
    62    30    71 1   
    63    31    32 ar  
    64    32    33 ar  
    65    32    72 1   
    66    33    34 ar  
    67    33    73 1   
    68    34    35 ar  
    69    35    36 ar  
    70    35    39 1   
    71    36    37 ar  
    72    37    38 ar  
    73    37    74 1   
    74    38    43 1   
    75    39    75 1   
    76    39    76 1   
    77    40    41 2   
    78    42    44 1   
    79    44    45 1   
    80    44    77 1   
    81    44    78 1   
    82    45    46 1   
    83    45    47 1   
    84    45    79 1   
    85    48    80 1   
    86    48    81 1   
    87    48    82 1   
@<TRIPOS>SUBSTRUCTURE
     1 7KS         1 TEMP              0 ****  ****    0 ROOT
