@<TRIPOS>MOLECULE
7KS
   82    87     1     0     0
SMALL
abcg2


@<TRIPOS>ATOM
      1 C13          3.6900    38.1740    21.9420 ca         1 7KS       0.040000
      2 C18          8.3120    39.6050    19.7620 cx         1 7KS      -0.410700
      3 C16          5.6840    39.7130    20.7710 ca         1 7KS      -0.285500
      4 C19          9.4780    39.7040    20.7030 cx         1 7KS      -0.062900
      5 C20          9.6080    40.2190    19.3030 cx         1 7KS      -0.062900
      6 C23          6.2450    40.3030    25.5430 c3         1 7KS       0.091300
      7 C24          2.8670    35.1710    24.9150 c3         1 7KS       0.002600
      8 C11          4.7340    39.0680    19.9790 ca         1 7KS       0.007000
      9 C12          3.7450    38.2920    20.5540 ca         1 7KS      -0.178000
     10 C34          8.2870    35.8110    27.9790 ca         1 7KS      -0.204000
     11 C27          1.7220    36.0730    24.3430 c3         1 7KS      -0.156400
     12 C33          8.6660    34.8690    28.9500 ca         1 7KS       0.041000
     13 C1           7.2640    37.5620    25.8130 c3         1 7KS       0.218800
     14 C2           5.8510    37.1880    26.2550 ca         1 7KS      -0.156300
     15 C3           5.0520    36.3810    25.4410 ca         1 7KS      -0.054000
     16 C4           3.7820    35.9720    25.8240 ca         1 7KS      -0.106300
     17 C5           3.3170    36.3790    27.0880 ca         1 7KS       0.163100
     18 C6           4.0940    37.1830    27.9110 ca         1 7KS      -0.181000
     19 C7           5.3560    37.5900    27.4850 ca         1 7KS      -0.049000
     20 C8           6.7080    40.1830    23.0860 c3         1 7KS       0.135300
     21 N9           6.7690    39.5550    24.4050 n          1 7KS      -0.398800
     22 C10          5.6550    39.5830    22.1700 ca         1 7KS       0.038700
     23 C14          4.6310    38.8370    22.7290 ca         1 7KS      -0.152000
     24 N15          2.7560    37.3060    22.5210 ns         1 7KS      -0.169000
     25 S17          6.9100    40.6670    19.9060 sy         1 7KS       1.123500
     26 O21          6.4070    40.9000    18.5620 o          1 7KS      -0.539500
     27 O22          7.2730    41.8290    20.6980 o          1 7KS      -0.539500
     28 C25          2.2690    37.3690    23.8020 c          1 7KS       0.608100
     29 O26          2.3410    38.3840    24.4820 o          1 7KS      -0.564100
     30 N28          8.1170    36.4070    25.6360 nu         1 7KS      -0.964200
     31 C29          8.4440    35.5280    26.6270 ca         1 7KS       0.366000
     32 C30          9.0020    34.2720    26.2530 ca         1 7KS      -0.178000
     33 C31          9.3650    33.3490    27.1930 ca         1 7KS      -0.036000
     34 C32          9.2020    33.6060    28.5750 ca         1 7KS      -0.157000
     35 C35          9.5490    32.6760    29.6090 ca         1 7KS       0.609900
     36 N36          9.4150    32.9540    30.8950 nb         1 7KS      -0.752000
     37 C37          8.9260    34.1690    31.2520 ca         1 7KS       0.353900
     38 C38          8.5510    35.1020    30.3400 ca         1 7KS       0.049000
     39 N39         10.0920    31.4500    29.2930 nv         1 7KS      -1.044900
     40 C40          7.2510    38.2970    24.4580 c          1 7KS       0.594100
     41 O41          7.6450    37.7170    23.4450 o          1 7KS      -0.616100
     42 O42          2.0690    35.9390    27.4280 os         1 7KS      -0.353100
     43 F43          8.0530    36.3000    30.7610 f          1 7KS      -0.187000
     44 C44          1.5360    36.2950    28.6890 c3         1 7KS       0.102600
     45 C45          0.1890    35.6190    28.7820 c3         1 7KS       0.171300
     46 F46         -0.6830    36.1570    27.8680 f          1 7KS      -0.117000
     47 F47         -0.3390    35.8600    30.0240 f          1 7KS      -0.117000
     48 C48          3.6030    34.4070    23.8160 c3         1 7KS      -0.096100
     49 H59          8.0240    38.6380    19.3700 h1         1 7KS       0.126700
     50 H61          9.9540    38.7710    20.9730 hc         1 7KS       0.086950
     51 H60          9.4290    40.4450    21.4880 hc         1 7KS       0.086950
     52 H63         10.1730    39.6510    18.5770 hc         1 7KS       0.086950
     53 H62          9.6340    41.2920    19.1730 hc         1 7KS       0.086950
     54 H64          6.7180    39.9880    26.4670 h1         1 7KS       0.050367
     55 H66          6.4660    41.3580    25.3950 h1         1 7KS       0.050367
     56 H65          5.1640    40.1780    25.6410 h1         1 7KS       0.050367
     57 H67          2.3550    34.4350    25.5370 hc         1 7KS       0.070700
     58 H55          4.7780    39.1770    18.9060 ha         1 7KS       0.143000
     59 H56          3.0230    37.7750    19.9350 ha         1 7KS       0.121000
     60 H73          7.8820    36.7550    28.3030 ha         1 7KS       0.126000
     61 H68          1.0260    36.3200    25.1410 hc         1 7KS       0.075700
     62 H69          1.1900    35.5130    23.5720 hc         1 7KS       0.075700
     63 H49          7.7000    38.2210    26.5670 h1         1 7KS       0.078700
     64 H50          5.4380    36.0720    24.4790 ha         1 7KS       0.125000
     65 H51          3.7340    37.4980    28.8800 ha         1 7KS       0.125000
     66 H52          5.9550    38.2180    28.1330 ha         1 7KS       0.117000
     67 H53          7.6850    40.0960    22.6240 h1         1 7KS       0.082200
     68 H54          6.5120    41.2430    23.2320 h1         1 7KS       0.082200
     69 H57          4.5870    38.7140    23.7970 ha         1 7KS       0.139000
     70 H58          2.4870    36.5080    21.9650 hn         1 7KS       0.156000
     71 H70          8.1870    36.0960    24.6780 hn         1 7KS       0.509000
     72 H71          9.1320    34.0550    25.1990 ha         1 7KS       0.117000
     73 H72          9.7900    32.4120    26.8590 ha         1 7KS       0.111000
     74 H74          8.8330    34.3730    32.3120 h4         1 7KS       0.031100
     75 H76         10.0970    30.7910    30.0570 hn         1 7KS       0.467000
     76 H75          9.8410    31.0390    28.4090 hn         1 7KS       0.467000
     77 H78          2.1660    35.9310    29.5060 h1         1 7KS       0.066700
     78 H77          1.4080    37.3780    28.7810 h1         1 7KS       0.066700
     79 H79          0.2230    34.5420    28.6190 h2         1 7KS       0.073700
     80 H80          4.3510    33.7410    24.2480 hc         1 7KS       0.041033
     81 H81          2.8930    33.8020    23.2510 hc         1 7KS       0.041033
     82 H82          4.1110    35.0670    23.1120 hc         1 7KS       0.041033
@<TRIPOS>BOND
     1     1     9 ar  
     2     1    23 ar  
     3     1    24 1   
     4     2     4 1   
     5     2     5 1   
     6     2    25 1   
     7     2    49 1   
     8     3     8 ar  
     9     3    22 ar  
    10     3    25 1   
    11     4     5 1   
    12     4    50 1   
    13     4    51 1   
    14     5    52 1   
    15     5    53 1   
    16     6    21 1   
    17     6    54 1   
    18     6    55 1   
    19     6    56 1   
    20     7    11 1   
    21     7    16 1   
    22     7    48 1   
    23     7    57 1   
    24     8     9 ar  
    25     8    58 1   
    26     9    59 1   
    27    10    12 ar  
    28    10    31 ar  
    29    10    60 1   
    30    11    28 1   
    31    11    61 1   
    32    11    62 1   
    33    12    34 ar  
    34    12    38 ar  
    35    13    14 1   
    36    13    30 1   
    37    13    40 1   
    38    13    63 1   
    39    14    15 ar  
    40    14    19 ar  
    41    15    16 ar  
    42    15    64 1   
    43    16    17 ar  
    44    17    18 ar  
    45    17    42 1   
    46    18    19 ar  
    47    18    65 1   
    48    19    66 1   
    49    20    21 1   
    50    20    22 1   
    51    20    67 1   
    52    20    68 1   
    53    21    40 1   
    54    22    23 ar  
    55    23    69 1   
    56    24    28 1   
    57    24    70 1   
    58    25    26 2   
    59    25    27 2   
    60    28    29 2   
    61    30    31 1   
    62    30    71 1   
    63    31    32 ar  
    64    32    33 ar  
    65    32    72 1   
    66    33    34 ar  
    67    33    73 1   
    68    34    35 ar  
    69    35    36 ar  
    70    35    39 1   
    71    36    37 ar  
    72    37    38 ar  
    73    37    74 1   
    74    38    43 1   
    75    39    75 1   
    76    39    76 1   
    77    40    41 2   
    78    42    44 1   
    79    44    45 1   
    80    44    77 1   
    81    44    78 1   
    82    45    46 1   
    83    45    47 1   
    84    45    79 1   
    85    48    80 1   
    86    48    81 1   
    87    48    82 1   
@<TRIPOS>SUBSTRUCTURE
     1 7KS         1 TEMP              0 ****  ****    0 ROOT
