@<TRIPOS>MOLECULE
7KT
   29    29     1     0     0
SMALL
abcg2


@<TRIPOS>ATOM
      1 O2          -2.0060    -1.3230    -1.1840 o          1 7KT      -0.536500
      2 S1          -1.7130    -0.0880    -0.4750 sy         1 7KT       1.139600
      3 O1          -2.2390     1.1510    -1.0210 o          1 7KT      -0.536500
      4 N1          -2.3720    -0.2410     1.0290 n7         1 7KT      -0.859300
      5 C1          -2.1510     0.8320     1.9890 c3         1 7KT       0.179100
      6 C2           0.0580     0.0520    -0.2560 ca         1 7KT      -0.294500
      7 C9           0.7630    -1.1090     0.1240 ca         1 7KT       0.024200
      8 C10          0.1540    -2.4690     0.3480 c3         1 7KT      -0.064800
      9 C8           2.1370    -1.0140     0.3030 ca         1 7KT      -0.144000
     10 C6           2.8290     0.1750     0.1260 ca         1 7KT      -0.013300
     11 C7           4.3170     0.2350     0.2900 c3         1 7KT      -0.056800
     12 C5           2.1020     1.3020    -0.2240 ca         1 7KT      -0.144000
     13 C3           0.7220     1.2820    -0.4170 ca         1 7KT       0.024200
     14 C4           0.0920     2.5990    -0.7880 c3         1 7KT      -0.064800
     15 H1          -2.2530    -1.1700     1.4140 hn         1 7KT       0.478000
     16 H2          -2.5660     1.7630     1.6130 h1         1 7KT       0.050700
     17 H3          -2.6830     0.5710     2.9000 h1         1 7KT       0.050700
     18 H4          -1.0980     0.9840     2.2390 h1         1 7KT       0.050700
     19 H5          -0.1560    -2.9330    -0.5860 hc         1 7KT       0.057700
     20 H6           0.8910    -3.1190     0.8130 hc         1 7KT       0.057700
     21 H7          -0.7130    -2.4560     1.0070 hc         1 7KT       0.057700
     22 H8           2.6810    -1.9050     0.5950 ha         1 7KT       0.113500
     23 H9           4.8150    -0.0120    -0.6500 hc         1 7KT       0.049033
     24 H10          4.6480     1.2300     0.5830 hc         1 7KT       0.049033
     25 H11          4.6650    -0.4780     1.0370 hc         1 7KT       0.049033
     26 H12          2.6240     2.2430    -0.3510 ha         1 7KT       0.113500
     27 H13         -0.3410     2.5810    -1.7860 hc         1 7KT       0.057700
     28 H14         -0.6940     2.9010    -0.0980 hc         1 7KT       0.057700
     29 H15          0.8570     3.3720    -0.7720 hc         1 7KT       0.057700
@<TRIPOS>BOND
     1     1     2 2   
     2     2     3 2   
     3     2     4 1   
     4     2     6 1   
     5     4     5 1   
     6     4    15 1   
     7     5    16 1   
     8     5    17 1   
     9     5    18 1   
    10     6     7 ar  
    11     6    13 ar  
    12     7     8 1   
    13     7     9 ar  
    14     8    19 1   
    15     8    20 1   
    16     8    21 1   
    17     9    10 ar  
    18     9    22 1   
    19    10    11 1   
    20    10    12 ar  
    21    11    23 1   
    22    11    24 1   
    23    11    25 1   
    24    12    13 ar  
    25    12    26 1   
    26    13    14 1   
    27    14    27 1   
    28    14    28 1   
    29    14    29 1   
@<TRIPOS>SUBSTRUCTURE
     1 7KT         1 TEMP              0 ****  ****    0 ROOT
