@<TRIPOS>MOLECULE
7KT
   29    29     1     0     0
SMALL
No Charge or Current Charge


@<TRIPOS>ATOM
      1 O2          -2.2720    -1.5190    -0.3670 o          1 7KT      -0.536500
      2 S1          -1.8000    -0.1440    -0.5220 sy         1 7KT       1.139600
      3 O1          -2.2030     0.6720    -1.6690 o          1 7KT      -0.536500
      4 N1          -2.4020     0.6650     0.8090 n7         1 7KT      -0.859300
      5 C1          -1.8100     0.3600     2.1250 c3         1 7KT       0.179100
      6 C2           0.0140     0.0120    -0.2680 ca         1 7KT      -0.294500
      7 C9           0.8280    -1.1030     0.1130 ca         1 7KT       0.024200
      8 C10          0.2960    -2.5170     0.3470 c3         1 7KT      -0.064800
      9 C8           2.2150    -0.9290     0.2940 ca         1 7KT      -0.144000
     10 C6           2.8240     0.3160     0.1150 ca         1 7KT      -0.013300
     11 C7           4.3240     0.4760     0.3120 c3         1 7KT      -0.056800
     12 C5           2.0360     1.4120    -0.2490 ca         1 7KT      -0.144000
     13 C3           0.6470     1.2850    -0.4370 ca         1 7KT       0.024200
     14 C4          -0.1030     2.5660    -0.8130 c3         1 7KT      -0.064800
     15 H1          -3.3680     0.3430     0.7970 hn         1 7KT       0.478000
     16 H2          -0.7620     0.6830     2.1780 h1         1 7KT       0.050700
     17 H3          -2.3560     0.8830     2.9220 h1         1 7KT       0.050700
     18 H4          -1.8490    -0.7160     2.3420 h1         1 7KT       0.050700
     19 H5          -0.1390    -2.9370    -0.5660 hc         1 7KT       0.057700
     20 H6           1.0890    -3.2080     0.6570 hc         1 7KT       0.057700
     21 H7          -0.4570    -2.5360     1.1440 hc         1 7KT       0.057700
     22 H8           2.8340    -1.7770     0.5770 ha         1 7KT       0.113500
     23 H9           4.8610     0.2910    -0.6260 hc         1 7KT       0.049033
     24 H10          4.5780     1.4880     0.6500 hc         1 7KT       0.049033
     25 H11          4.7060    -0.2260     1.0620 hc         1 7KT       0.049033
     26 H12          2.5140     2.3790    -0.3860 ha         1 7KT       0.113500
     27 H13         -0.4130     2.5510    -1.8640 hc         1 7KT       0.057700
     28 H14         -0.9880     2.7280    -0.1900 hc         1 7KT       0.057700
     29 H15          0.5250     3.4560    -0.6850 hc         1 7KT       0.057700
@<TRIPOS>BOND
     1     1     2 2   
     2     2     3 2   
     3     2     4 1   
     4     2     6 1   
     5     4     5 1   
     6     4    15 1   
     7     5    16 1   
     8     5    17 1   
     9     5    18 1   
    10     6     7 ar  
    11     6    13 ar  
    12     7     8 1   
    13     7     9 ar  
    14     8    19 1   
    15     8    20 1   
    16     8    21 1   
    17     9    10 ar  
    18     9    22 1   
    19    10    11 1   
    20    10    12 ar  
    21    11    23 1   
    22    11    24 1   
    23    11    25 1   
    24    12    13 ar  
    25    12    26 1   
    26    13    14 1   
    27    14    27 1   
    28    14    28 1   
    29    14    29 1   
@<TRIPOS>SUBSTRUCTURE
     1 7KT         1 TEMP              0 ****  ****    0 ROOT
