@<TRIPOS>MOLECULE
7KU
   39    41     1     0     0
SMALL
No Charge or Current Charge


@<TRIPOS>ATOM
      1 N3           5.2220     0.4510    -0.5270 na         1 7KU      -0.316400
      2 C4          -3.3100    -1.7180    -0.3790 c6         1 7KU       0.099000
      3 N2           0.9010    -1.1240     0.3020 nu         1 7KU      -0.926100
      4 C7          -0.5590    -1.0310     0.5090 c6         1 7KU       0.218500
      5 C6          -1.1330    -2.4530     0.7370 c6         1 7KU      -0.088400
      6 C9           1.7980    -0.0630     0.3390 ca         1 7KU       0.433900
      7 C13          3.9840     0.8500    -0.0480 ca         1 7KU       0.147500
      8 C8          -1.2580    -0.3650    -0.7130 c6         1 7KU       0.073000
      9 N5           1.3740     1.1290     0.8020 nb         1 7KU      -0.291000
     10 C1          -5.7190     2.1400    -0.0280 c3         1 7KU      -0.077100
     11 C2          -4.9930     0.7800    -0.1490 c3         1 7KU      -0.152400
     12 O1          -2.8710     1.9180    -0.2450 o          1 7KU      -0.589100
     13 N1          -2.7410    -0.3520    -0.5480 n          1 7KU      -0.412800
     14 C5          -2.6800    -2.4200     0.8480 c6         1 7KU      -0.097400
     15 C10          3.1220    -0.2160    -0.0950 ca         1 7KU      -0.262800
     16 C11          3.8280    -1.3470    -0.6250 cc         1 7KU      -0.208200
     17 C12          5.1190    -0.9170    -0.8850 cd         1 7KU      -0.180100
     18 N4           3.5800     2.0500     0.4110 nb         1 7KU      -0.231000
     19 C14          2.2890     2.1270     0.8140 ca         1 7KU       0.180900
     20 H1           6.0450     1.0400    -0.6040 hn         1 7KU       0.361000
     21 H2          -4.4010    -1.7040    -0.2680 h1         1 7KU       0.049700
     22 H3          -3.0920    -2.3050    -1.2830 h1         1 7KU       0.049700
     23 H4           1.2880    -1.9980    -0.0490 hn         1 7KU       0.492000
     24 H5          -0.7820    -0.4290     1.4050 h1         1 7KU       0.093700
     25 H6          -0.8450    -3.1120    -0.0940 hc         1 7KU       0.046200
     26 H7          -0.7050    -2.8900     1.6500 hc         1 7KU       0.046200
     27 H8          -0.8700     0.6530    -0.8490 h1         1 7KU       0.069700
     28 H9          -1.0080    -0.9260    -1.6240 h1         1 7KU       0.069700
     29 H10         -5.3670     2.6920     0.8520 hc         1 7KU       0.042033
     30 H11         -5.5430     2.7550    -0.9190 hc         1 7KU       0.042033
     31 H12         -6.8010     1.9880     0.0740 hc         1 7KU       0.042033
     32 H13         -5.2170     0.1390     0.7100 hc         1 7KU       0.052700
     33 H14         -5.3960     0.1860    -0.9780 hc         1 7KU       0.052700
     34 H15         -2.9760    -1.8920     1.7650 hc         1 7KU       0.051700
     35 H16         -3.0720    -3.4430     0.9340 hc         1 7KU       0.051700
     36 H17          3.4500    -2.3530    -0.7990 ha         1 7KU       0.200000
     37 H18          5.9610    -1.4750    -1.2930 h4         1 7KU       0.216000
     38 H19          1.9520     3.0930     1.1870 h5         1 7KU       0.047100
     39 C3          -3.4580     0.8450    -0.3040 c          1 7KU       0.603100
@<TRIPOS>BOND
     1     1     7 1   
     2     1    17 1   
     3     1    20 1   
     4     2    13 1   
     5     2    14 1   
     6     2    21 1   
     7     2    22 1   
     8     3     4 1   
     9     3     6 1   
    10     3    23 1   
    11     4     5 1   
    12     4     8 1   
    13     4    24 1   
    14     5    14 1   
    15     5    25 1   
    16     5    26 1   
    17     6     9 ar  
    18     6    15 ar  
    19     7    15 ar  
    20     7    18 ar  
    21     8    13 1   
    22     8    27 1   
    23     8    28 1   
    24     9    19 ar  
    25    10    11 1   
    26    10    29 1   
    27    10    30 1   
    28    10    31 1   
    29    11    32 1   
    30    11    33 1   
    31    11    39 1   
    32    12    39 2   
    33    13    39 1   
    34    14    34 1   
    35    14    35 1   
    36    15    16 1   
    37    16    17 2   
    38    16    36 1   
    39    17    37 1   
    40    18    19 ar  
    41    19    38 1   
@<TRIPOS>SUBSTRUCTURE
     1 7KU         1 TEMP              0 ****  ****    0 ROOT
