@<TRIPOS>MOLECULE
7KU
   39    41     1     0     0
SMALL
abcg2


@<TRIPOS>ATOM
      1 N3           5.1310     0.4940    -0.2820 na         1 7KU      -0.316400
      2 C4          -3.3430    -1.7110    -0.3390 c6         1 7KU       0.099000
      3 N2           0.8150    -1.1330     0.0620 nu         1 7KU      -0.926100
      4 C7          -0.6020    -1.0220     0.3260 c6         1 7KU       0.218500
      5 C6          -1.1640    -2.3870     0.7080 c6         1 7KU      -0.088400
      6 C9           1.6960    -0.1260     0.1800 ca         1 7KU       0.433900
      7 C13          3.8660     0.8300     0.0610 ca         1 7KU       0.147500
      8 C8          -1.3470    -0.4550    -0.8890 c6         1 7KU       0.073000
      9 N5           1.2730     1.0590     0.6250 nb         1 7KU      -0.291000
     10 C1          -5.4820     2.1120     0.1170 c3         1 7KU      -0.077100
     11 C2          -4.8690     0.7340    -0.0500 c3         1 7KU      -0.152400
     12 O1          -2.8300     1.8480    -0.6060 o          1 7KU      -0.589100
     13 N1          -2.7720    -0.4060    -0.6250 n          1 7KU      -0.412800
     14 C5          -2.6770    -2.3240     0.8860 c6         1 7KU      -0.097400
     15 C10          3.0600    -0.2960    -0.1370 ca         1 7KU      -0.262800
     16 C11          3.9020    -1.3420    -0.6210 cc         1 7KU      -0.208200
     17 C12          5.1580    -0.8140    -0.6930 cd         1 7KU      -0.180100
     18 N4           3.4530     2.0200     0.5120 nb         1 7KU      -0.231000
     19 C14          2.1610     2.0430     0.7650 ca         1 7KU       0.180900
     20 H1           5.9300     1.1060    -0.2310 hn         1 7KU       0.361000
     21 H2          -4.4180    -1.6420    -0.2010 h1         1 7KU       0.049700
     22 H3          -3.1790    -2.3550    -1.2080 h1         1 7KU       0.049700
     23 H4           1.1460    -1.9970    -0.3370 hn         1 7KU       0.492000
     24 H5          -0.7380    -0.3300     1.1600 h1         1 7KU       0.093700
     25 H6          -0.9280    -3.1080    -0.0830 hc         1 7KU       0.046200
     26 H7          -0.6830    -2.7440     1.6210 hc         1 7KU       0.046200
     27 H8          -0.9810     0.5400    -1.1250 h1         1 7KU       0.069700
     28 H9          -1.1680    -1.1000    -1.7570 h1         1 7KU       0.069700
     29 H10         -4.9850     2.6840     0.9000 hc         1 7KU       0.042033
     30 H11         -5.4350     2.6930    -0.8030 hc         1 7KU       0.042033
     31 H12         -6.5320     2.0160     0.3940 hc         1 7KU       0.042033
     32 H13         -4.9720     0.1710     0.8820 hc         1 7KU       0.052700
     33 H14         -5.4290     0.1670    -0.7980 hc         1 7KU       0.052700
     34 H15         -2.9320    -1.7320     1.7700 hc         1 7KU       0.051700
     35 H16         -3.0740    -3.3280     1.0510 hc         1 7KU       0.051700
     36 H17          3.6280    -2.3510    -0.8830 ha         1 7KU       0.200000
     37 H18          6.0820    -1.2710    -1.0060 h4         1 7KU       0.216000
     38 H19          1.7600     2.9820     1.1320 h5         1 7KU       0.047100
     39 C3          -3.4040     0.7790    -0.4460 c          1 7KU       0.603100
@<TRIPOS>BOND
     1     1     7 1   
     2     1    17 1   
     3     1    20 1   
     4     2    13 1   
     5     2    14 1   
     6     2    21 1   
     7     2    22 1   
     8     3     4 1   
     9     3     6 1   
    10     3    23 1   
    11     4     5 1   
    12     4     8 1   
    13     4    24 1   
    14     5    14 1   
    15     5    25 1   
    16     5    26 1   
    17     6     9 ar  
    18     6    15 ar  
    19     7    15 ar  
    20     7    18 ar  
    21     8    13 1   
    22     8    27 1   
    23     8    28 1   
    24     9    19 ar  
    25    10    11 1   
    26    10    29 1   
    27    10    30 1   
    28    10    31 1   
    29    11    32 1   
    30    11    33 1   
    31    11    39 1   
    32    12    39 2   
    33    13    39 1   
    34    14    34 1   
    35    14    35 1   
    36    15    16 1   
    37    16    17 2   
    38    16    36 1   
    39    17    37 1   
    40    18    19 ar  
    41    19    38 1   
@<TRIPOS>SUBSTRUCTURE
     1 7KU         1 TEMP              0 ****  ****    0 ROOT
