@<TRIPOS>MOLECULE
7KV
   43    46     1     0     0
SMALL
No Charge or Current Charge


@<TRIPOS>ATOM
      1 N3           3.8210     2.1370     0.3880 na         1 7KV      -0.318400
      2 C4           3.7360     0.8230    -0.0380 ca         1 7KV       0.140500
      3 N2           4.7100     0.0430    -0.5360 nb         1 7KV      -0.234000
      4 C7          -0.9020    -3.1650    -0.5330 c5         1 7KV      -0.097400
      5 C6           1.6790     1.4490     0.6810 cc         1 7KV      -0.204200
      6 C9          -1.2800    -2.1990     0.6190 c5         1 7KV      -0.078700
      7 C13         -2.7920    -1.8780     0.7830 c6         1 7KV      -0.092400
      8 C8           0.6430    -3.0460    -0.5130 c5         1 7KV       0.232800
      9 N5          -2.4740     0.2640    -0.4490 n          1 7KV      -0.403800
     10 C16         -4.7080     3.2380     0.7730 c3         1 7KV      -0.077100
     11 N1           3.1170    -1.7550    -0.7530 nb         1 7KV      -0.311000
     12 C1           4.3480    -1.2130    -0.8690 ca         1 7KV       0.177900
     13 C2           2.1310    -0.9750    -0.2560 ca         1 7KV       0.440900
     14 C3           2.4460     0.3600     0.1190 ca         1 7KV      -0.250800
     15 C5           2.5380     2.5220     0.8340 cd         1 7KV      -0.182100
     16 N4           0.8600    -1.6080    -0.1590 nh         1 7KV      -0.783300
     17 C10         -0.4040    -0.9540     0.2750 c5         1 7KV       0.218500
     18 C11         -1.0620    -0.0470    -0.8100 c6         1 7KV       0.071000
     19 C12         -3.3170    -0.9600    -0.3470 c6         1 7KV       0.095000
     20 O1          -2.0290     2.4330     0.1440 o          1 7KV      -0.602100
     21 C15         -4.3410     1.7890     0.3780 c3         1 7KV      -0.153400
     22 H1           4.6590     2.7110     0.3770 hn         1 7KV       0.359000
     23 H2          -1.2390    -4.1920    -0.3530 hc         1 7KV       0.053200
     24 H3          -1.3140    -2.8510    -1.4980 hc         1 7KV       0.053200
     25 H4           0.6280     1.4850     0.9500 ha         1 7KV       0.221000
     26 H5          -0.9690    -2.6280     1.5800 hc         1 7KV       0.063700
     27 H6          -3.3750    -2.8090     0.8150 hc         1 7KV       0.051700
     28 H7          -2.9520    -1.3780     1.7490 hc         1 7KV       0.051700
     29 H8           1.0810    -3.7070     0.2490 h1         1 7KV       0.060700
     30 H9           1.0690    -3.3150    -1.4900 h1         1 7KV       0.060700
     31 H10         -4.4790     3.9330    -0.0440 hc         1 7KV       0.042700
     32 H11         -5.7790     3.3140     0.9960 hc         1 7KV       0.042700
     33 H12         -4.1500     3.5510     1.6640 hc         1 7KV       0.042700
     34 H13          5.1290    -1.8550    -1.2730 h5         1 7KV       0.041100
     35 H14          2.3330     3.5190     1.2240 h4         1 7KV       0.218000
     36 H15         -0.2750    -0.3740     1.1980 h1         1 7KV       0.079700
     37 H16         -1.0540    -0.5680    -1.7770 h1         1 7KV       0.074200
     38 H17         -0.4750     0.8690    -0.9500 h1         1 7KV       0.074200
     39 H18         -3.2780    -1.4990    -1.3050 h1         1 7KV       0.054700
     40 H19         -4.3720    -0.7210    -0.1670 h1         1 7KV       0.054700
     41 H20         -4.6270     1.0830     1.1660 hc         1 7KV       0.055200
     42 H21         -4.9520     1.4380    -0.4620 hc         1 7KV       0.055200
     43 C14         -2.8590     1.5390     0.0310 c          1 7KV       0.601100
@<TRIPOS>BOND
     1     1     2 1   
     2     1    15 1   
     3     1    22 1   
     4     2     3 ar  
     5     2    14 ar  
     6     3    12 ar  
     7     4     6 1   
     8     4     8 1   
     9     4    23 1   
    10     4    24 1   
    11     5    14 1   
    12     5    15 2   
    13     5    25 1   
    14     6     7 1   
    15     6    17 1   
    16     6    26 1   
    17     7    19 1   
    18     7    27 1   
    19     7    28 1   
    20     8    16 1   
    21     8    29 1   
    22     8    30 1   
    23     9    18 1   
    24     9    19 1   
    25     9    43 1   
    26    10    21 1   
    27    10    31 1   
    28    10    32 1   
    29    10    33 1   
    30    11    12 ar  
    31    11    13 ar  
    32    12    34 1   
    33    13    14 ar  
    34    13    16 1   
    35    15    35 1   
    36    16    17 1   
    37    17    18 1   
    38    17    36 1   
    39    18    37 1   
    40    18    38 1   
    41    19    39 1   
    42    19    40 1   
    43    20    43 2   
    44    21    41 1   
    45    21    42 1   
    46    21    43 1   
@<TRIPOS>SUBSTRUCTURE
     1 7KV         1 TEMP              0 ****  ****    0 ROOT
