@<TRIPOS>MOLECULE
7KV
   43    46     1     0     0
SMALL
bcc


@<TRIPOS>ATOM
      1 N3           3.7270     2.0610     0.4590 na         1 7KV      -0.268100
      2 C4           3.6280     0.7640     0.0880 ca         1 7KV       0.468800
      3 N2           4.6540    -0.0230    -0.2480 nb         1 7KV      -0.760000
      4 C7          -0.8920    -3.1440    -0.4530 c5         1 7KV      -0.097400
      5 C6           1.5480     1.5810     0.5110 cc         1 7KV      -0.154200
      6 C9          -1.2910    -2.1110     0.5980 c5         1 7KV      -0.078700
      7 C13         -2.7830    -1.8190     0.7240 c6         1 7KV      -0.092400
      8 C8           0.6060    -2.9140    -0.6240 c5         1 7KV       0.232800
      9 N5          -2.4850     0.2310    -0.5540 n          1 7KV      -0.470800
     10 C16         -4.4700     3.0840     0.9110 c3         1 7KV      -0.077100
     11 N1           3.0300    -1.7230    -0.6050 nb         1 7KV      -0.837000
     12 C1           4.2660    -1.2350    -0.5840 ca         1 7KV       0.703900
     13 C2           2.0040    -0.9380    -0.2520 ca         1 7KV       0.769200
     14 C3           2.2680     0.4070     0.1120 ca         1 7KV      -0.381400
     15 C5           2.4760     2.5580     0.7110 cd         1 7KV      -0.132100
     16 N4           0.7870    -1.5060    -0.2700 nh         1 7KV      -0.783300
     17 C10         -0.4460    -0.8950     0.1900 c5         1 7KV       0.218500
     18 C11         -1.1250    -0.0960    -0.9300 c6         1 7KV       0.071000
     19 C12         -3.3120    -0.9540    -0.4120 c6         1 7KV       0.095000
     20 O1          -1.9650     2.3560    -0.0120 o          1 7KV      -0.602100
     21 C15         -4.2050     1.6610     0.4520 c3         1 7KV      -0.153400
     22 H1           4.5890     2.5760     0.5370 hn         1 7KV       0.308700
     23 H2          -1.1100    -4.1630    -0.1360 hc         1 7KV       0.053200
     24 H3          -1.4210    -2.9770    -1.3940 hc         1 7KV       0.053200
     25 H4           0.4850     1.7190     0.6190 ha         1 7KV       0.171000
     26 H5          -0.9240    -2.4550     1.5700 hc         1 7KV       0.063700
     27 H6          -3.3420    -2.7570     0.7640 hc         1 7KV       0.051700
     28 H7          -2.9730    -1.3050     1.6700 hc         1 7KV       0.051700
     29 H8           1.1860    -3.5500     0.0490 h1         1 7KV       0.060700
     30 H9           0.9520    -3.1140    -1.6390 h1         1 7KV       0.060700
     31 H10         -4.3310     3.8010     0.1030 hc         1 7KV       0.042700
     32 H11         -5.5000     3.1710     1.2570 hc         1 7KV       0.042700
     33 H12         -3.8190     3.3750     1.7340 hc         1 7KV       0.042700
     34 H13          5.0470    -1.9280    -0.8790 h5         1 7KV       0.041100
     35 H14          2.3410     3.5840     1.0130 h4         1 7KV       0.168000
     36 H15         -0.2640    -0.2480     1.0510 h1         1 7KV       0.079700
     37 H16         -1.1560    -0.7000    -1.8410 h1         1 7KV       0.074200
     38 H17         -0.5710     0.8080    -1.1690 h1         1 7KV       0.074200
     39 H18         -3.2890    -1.4980    -1.3600 h1         1 7KV       0.054700
     40 H19         -4.3510    -0.6870    -0.2370 h1         1 7KV       0.054700
     41 H20         -4.4000     0.9650     1.2730 hc         1 7KV       0.055200
     42 H21         -4.9120     1.3890    -0.3370 hc         1 7KV       0.055200
     43 C14         -2.7880     1.4500    -0.0480 c          1 7KV       0.668100
@<TRIPOS>BOND
     1     1     2 1   
     2     1    15 1   
     3     1    22 1   
     4     2     3 ar  
     5     2    14 ar  
     6     3    12 ar  
     7     4     6 1   
     8     4     8 1   
     9     4    23 1   
    10     4    24 1   
    11     5    14 1   
    12     5    15 2   
    13     5    25 1   
    14     6     7 1   
    15     6    17 1   
    16     6    26 1   
    17     7    19 1   
    18     7    27 1   
    19     7    28 1   
    20     8    16 1   
    21     8    29 1   
    22     8    30 1   
    23     9    18 1   
    24     9    19 1   
    25     9    43 1   
    26    10    21 1   
    27    10    31 1   
    28    10    32 1   
    29    10    33 1   
    30    11    12 ar  
    31    11    13 ar  
    32    12    34 1   
    33    13    14 ar  
    34    13    16 1   
    35    15    35 1   
    36    16    17 1   
    37    17    18 1   
    38    17    36 1   
    39    18    37 1   
    40    18    38 1   
    41    19    39 1   
    42    19    40 1   
    43    20    43 2   
    44    21    41 1   
    45    21    42 1   
    46    21    43 1   
@<TRIPOS>SUBSTRUCTURE
     1 7KV         1 TEMP              0 ****  ****    0 ROOT
