@<TRIPOS>MOLECULE
7KW
   39    42     1     0     0
SMALL
bcc


@<TRIPOS>ATOM
      1 C1           1.6540     3.8170     0.7450 ca         1 7KW      -0.122000
      2 C6           1.2450     2.7310     1.5090 ca         1 7KW      -0.139000
      3 C5           1.7130     1.4590     1.2220 ca         1 7KW      -0.094500
      4 C4           2.5960     1.2500     0.1640 ca         1 7KW      -0.113500
      5 C3           3.0130     2.3460    -0.5900 ca         1 7KW      -0.094500
      6 C2           2.5420     3.6210    -0.3040 ca         1 7KW      -0.139000
      7 C7           3.1280    -0.0870    -0.1320 cc         1 7KW       0.420800
      8 C9           2.4780    -1.3510    -0.1480 cc         1 7KW      -0.338800
      9 C8           3.4880    -2.2470    -0.4470 cd         1 7KW      -0.110300
     10 N2           4.6010    -1.5280    -0.5930 na         1 7KW       0.007400
     11 N1           4.4150    -0.2280    -0.4020 nd         1 7KW      -0.521800
     12 C10          1.0710    -1.6890     0.0190 ca         1 7KW       0.598800
     13 C14          0.6710    -2.9670     0.4280 ca         1 7KW      -0.427600
     14 C13         -0.6870    -3.1740     0.5380 ca         1 7KW       0.475200
     15 N3          -1.5930    -2.2330     0.2940 nb         1 7KW      -0.760000
     16 C12         -1.1120    -1.0540    -0.0840 ca         1 7KW       0.916900
     17 N4          -1.9530    -0.0160    -0.3500 nu         1 7KW      -0.735300
     18 C15         -3.3380     0.0910    -0.3260 ca         1 7KW       0.181600
     19 C20         -3.8710     1.3360    -0.6860 ca         1 7KW      -0.173500
     20 C19         -5.2380     1.5480    -0.6930 ca         1 7KW      -0.100500
     21 C18         -6.1130     0.5270    -0.3430 ca         1 7KW      -0.161000
     22 N9           0.1780    -0.7500    -0.2450 nb         1 7KW      -0.770000
     23 C17         -5.5880    -0.7070     0.0120 ca         1 7KW      -0.100500
     24 C16         -4.2180    -0.9370     0.0250 ca         1 7KW      -0.173500
     25 H1           1.2850     4.8100     0.9670 ha         1 7KW       0.128000
     26 H2           2.8670     4.4600    -0.9060 ha         1 7KW       0.130000
     27 H6           0.5620     2.8760     2.3370 ha         1 7KW       0.130000
     28 H3           3.7000     2.2000    -1.4130 ha         1 7KW       0.136000
     29 H5           1.3970     0.6260     1.8360 ha         1 7KW       0.136000
     30 HA           5.5200    -1.8750    -0.8170 hn         1 7KW       0.326700
     31 H8           3.4750    -3.3150    -0.5900 h4         1 7KW       0.176000
     32 H14          1.3790    -3.7490     0.6610 ha         1 7KW       0.149000
     33 H13         -1.0710    -4.1400     0.8470 h4         1 7KW       0.021100
     34 H4          -1.4590     0.8210    -0.6210 hn         1 7KW       0.456800
     35 H20         -3.2040     2.1450    -0.9620 ha         1 7KW       0.147500
     36 H16         -3.8380    -1.9050     0.3080 ha         1 7KW       0.147500
     37 H19         -5.6190     2.5210    -0.9760 ha         1 7KW       0.129000
     38 H18         -7.1820     0.6910    -0.3480 ha         1 7KW       0.132000
     39 H17         -6.2520    -1.5170     0.2870 ha         1 7KW       0.129000
@<TRIPOS>BOND
     1     1     2 ar  
     2     1     6 ar  
     3     1    25 1   
     4     2     3 ar  
     5     2    27 1   
     6     3     4 ar  
     7     3    29 1   
     8     4     5 ar  
     9     4     7 1   
    10     5     6 ar  
    11     5    28 1   
    12     6    26 1   
    13     7     8 1   
    14     7    11 2   
    15     8     9 2   
    16     8    12 1   
    17     9    10 1   
    18     9    31 1   
    19    10    11 1   
    20    10    30 1   
    21    12    13 ar  
    22    12    22 ar  
    23    13    14 ar  
    24    13    32 1   
    25    14    15 ar  
    26    14    33 1   
    27    15    16 ar  
    28    16    17 1   
    29    16    22 ar  
    30    17    18 1   
    31    17    34 1   
    32    18    19 ar  
    33    18    24 ar  
    34    19    20 ar  
    35    19    35 1   
    36    20    21 ar  
    37    20    37 1   
    38    21    23 ar  
    39    21    38 1   
    40    23    24 ar  
    41    23    39 1   
    42    24    36 1   
@<TRIPOS>SUBSTRUCTURE
     1 7KW         1 TEMP              0 ****  ****    0 ROOT
