@<TRIPOS>MOLECULE
7KW
   39    42     1     0     0
SMALL
No Charge or Current Charge


@<TRIPOS>ATOM
      1 C1           2.1170     3.9410     0.9000 ca         1 7KW      -0.104000
      2 C6           1.4950     2.8360     1.4990 ca         1 7KW      -0.121000
      3 C5           1.8230     1.5310     1.0900 ca         1 7KW      -0.076500
      4 C4           2.7620     1.3070     0.0560 ca         1 7KW      -0.113500
      5 C3           3.4120     2.4330    -0.5050 ca         1 7KW      -0.076500
      6 C2           3.0830     3.7370    -0.0970 ca         1 7KW      -0.121000
      7 C7           3.1550    -0.0570    -0.3600 cc         1 7KW       0.355500
      8 C9           2.4380    -1.2600    -0.1450 cc         1 7KW      -0.273500
      9 C8           3.2140    -2.2880    -0.5980 cd         1 7KW      -0.143000
     10 N2           4.3850    -1.6720    -1.0410 na         1 7KW       0.007800
     11 N1           4.3450    -0.2870    -0.8930 nd         1 7KW      -0.521800
     12 C10          1.0490    -1.5160     0.2310 ca         1 7KW       0.270500
     13 C14          0.6890    -2.6970     0.9060 ca         1 7KW      -0.279000
     14 C13         -0.6730    -2.9240     1.1530 ca         1 7KW       0.146900
     15 N3          -1.6140    -2.0600     0.7330 nb         1 7KW      -0.234000
     16 C12         -1.1790    -0.9850     0.0510 ca         1 7KW       0.390900
     17 N4          -2.1080    -0.0500    -0.3900 nu         1 7KW      -0.928900
     18 C15         -3.5050     0.0070    -0.4290 ca         1 7KW       0.320000
     19 C20         -4.1240     1.2700    -0.4390 ca         1 7KW      -0.155500
     20 C19         -5.5250     1.3810    -0.4910 ca         1 7KW      -0.082500
     21 C18         -6.3170     0.2230    -0.5440 ca         1 7KW      -0.143000
     22 N9           0.0980    -0.6750    -0.2250 nb         1 7KW      -0.244000
     23 C17         -5.7090    -1.0430    -0.5510 ca         1 7KW      -0.082500
     24 C16         -4.3070    -1.1490    -0.4980 ca         1 7KW      -0.155500
     25 H1           1.8640     4.9500     1.2180 ha         1 7KW       0.110000
     26 H2           3.5800     4.5900    -0.5530 ha         1 7KW       0.112000
     27 H6           0.7660     2.9880     2.2920 ha         1 7KW       0.112000
     28 H3           4.1650     2.3030    -1.2790 ha         1 7KW       0.118000
     29 H5           1.3630     0.7000     1.6150 ha         1 7KW       0.118000
     30 HA           5.1950    -2.1420    -1.4460 hn         1 7KW       0.377000
     31 H8           3.0310    -3.3550    -0.6790 h4         1 7KW       0.158000
     32 H14          1.4390    -3.4060     1.2430 ha         1 7KW       0.131000
     33 H13         -1.0150    -3.8080     1.6890 h4         1 7KW       0.021100
     34 H4          -1.6600     0.8180    -0.6830 hn         1 7KW       0.512000
     35 H20         -3.5190     2.1710    -0.3980 ha         1 7KW       0.129500
     36 H16         -3.8550    -2.1340    -0.5300 ha         1 7KW       0.129500
     37 H19         -5.9940     2.3630    -0.4910 ha         1 7KW       0.111000
     38 H18         -7.4010     0.3060    -0.5850 ha         1 7KW       0.114000
     39 H17         -6.3210    -1.9410    -0.6030 ha         1 7KW       0.111000
@<TRIPOS>BOND
     1     1     2 ar  
     2     1     6 ar  
     3     1    25 1   
     4     2     3 ar  
     5     2    27 1   
     6     3     4 ar  
     7     3    29 1   
     8     4     5 ar  
     9     4     7 1   
    10     5     6 ar  
    11     5    28 1   
    12     6    26 1   
    13     7     8 1   
    14     7    11 2   
    15     8     9 2   
    16     8    12 1   
    17     9    10 1   
    18     9    31 1   
    19    10    11 1   
    20    10    30 1   
    21    12    13 ar  
    22    12    22 ar  
    23    13    14 ar  
    24    13    32 1   
    25    14    15 ar  
    26    14    33 1   
    27    15    16 ar  
    28    16    17 1   
    29    16    22 ar  
    30    17    18 1   
    31    17    34 1   
    32    18    19 ar  
    33    18    24 ar  
    34    19    20 ar  
    35    19    35 1   
    36    20    21 ar  
    37    20    37 1   
    38    21    23 ar  
    39    21    38 1   
    40    23    24 ar  
    41    23    39 1   
    42    24    36 1   
@<TRIPOS>SUBSTRUCTURE
     1 7KW         1 TEMP              0 ****  ****    0 ROOT
