@<TRIPOS>MOLECULE
7KX
   34    36     1     0     0
SMALL
bcc


@<TRIPOS>ATOM
      1 N3           3.6360    -1.9730     0.4190 nb         1 7KX      -0.719000
      2 C4          -2.0340     0.9970     0.0730 ca         1 7KX       0.066600
      3 N2           4.9330    -0.2640    -0.6360 na         1 7KX      -0.271100
      4 C7           0.5050     2.1160     0.4200 ca         1 7KX      -0.134000
      5 C6          -0.6210     2.9250     0.4040 ca         1 7KX      -0.110000
      6 C9          -0.9060     0.1800     0.0990 ca         1 7KX      -0.107000
      7 C13          4.6870     1.0000    -1.1030 cc         1 7KX      -0.111100
      8 C8           0.3610     0.7410     0.2610 cp         1 7KX      -0.127500
      9 C1          -5.7980    -2.2060    -0.7090 c3         1 7KX      -0.077100
     10 C2          -5.3110    -0.8340    -0.2780 c3         1 7KX      -0.159400
     11 C3          -3.8050    -0.7480    -0.1460 c          1 7KX       0.670100
     12 O1          -3.0920    -1.7310    -0.0630 o          1 7KX      -0.567100
     13 C5          -1.8780     2.3780     0.2270 ca         1 7KX      -0.176000
     14 C10          1.5360    -0.1520     0.2780 cp         1 7KX       0.554800
     15 C11          2.7880     0.2190    -0.2200 ca         1 7KX      -0.313400
     16 C12          3.3870     1.3410    -0.8740 cd         1 7KX      -0.163200
     17 C14          3.7970    -0.7660    -0.1030 ca         1 7KX       0.450800
     18 C15          2.4040    -2.2050     0.8310 ca         1 7KX       0.665900
     19 N4           1.3680    -1.3710     0.7850 nb         1 7KX      -0.727000
     20 H1           5.8160    -0.7460    -0.6900 hn         1 7KX       0.313700
     21 H2           1.4790     2.5550     0.5910 ha         1 7KX       0.139000
     22 H3          -0.5200     3.9940     0.5350 ha         1 7KX       0.131000
     23 H4          -0.9950    -0.8870    -0.0150 ha         1 7KX       0.184000
     24 H5           5.4720     1.5690    -1.5740 h4         1 7KX       0.167000
     25 H6          -5.5080    -2.9790     0.0020 hc         1 7KX       0.044367
     26 H7          -6.8850    -2.2090    -0.7760 hc         1 7KX       0.044367
     27 H8          -5.4040    -2.4820    -1.6860 hc         1 7KX       0.044367
     28 H9          -5.6620    -0.0690    -0.9750 hc         1 7KX       0.056200
     29 H10         -5.7420    -0.5680     0.6930 hc         1 7KX       0.056200
     30 H11         -4.0370     1.2540    -0.1760 hn         1 7KX       0.312500
     31 H12         -2.7470     3.0240     0.2120 ha         1 7KX       0.126000
     32 H13          2.9290     2.2740    -1.1540 ha         1 7KX       0.162000
     33 H14          2.2110    -3.1820     1.2600 h5         1 7KX       0.051100
     34 N1          -3.3380     0.5300    -0.1080 ns         1 7KX      -0.479100
@<TRIPOS>BOND
     1     1    17 ar  
     2     1    18 ar  
     3     2     6 ar  
     4     2    13 ar  
     5     2    34 1   
     6     3     7 1   
     7     3    17 1   
     8     3    20 1   
     9     4     5 ar  
    10     4     8 ar  
    11     4    21 1   
    12     5    13 ar  
    13     5    22 1   
    14     6     8 ar  
    15     6    23 1   
    16     7    16 2   
    17     7    24 1   
    18     8    14 1   
    19     9    10 1   
    20     9    25 1   
    21     9    26 1   
    22     9    27 1   
    23    10    11 1   
    24    10    28 1   
    25    10    29 1   
    26    11    12 2   
    27    11    34 1   
    28    13    31 1   
    29    14    15 ar  
    30    14    19 ar  
    31    15    16 1   
    32    15    17 ar  
    33    16    32 1   
    34    18    19 ar  
    35    18    33 1   
    36    30    34 1   
@<TRIPOS>SUBSTRUCTURE
     1 7KX         1 TEMP              0 ****  ****    0 ROOT
