@<TRIPOS>MOLECULE
7KX
   34    36     1     0     0
SMALL
No Charge or Current Charge


@<TRIPOS>ATOM
      1 N3           3.8540    -1.8360     0.7500 nb         1 7KX      -0.193000
      2 C4          -2.0610     0.8960     0.1910 ca         1 7KX      -0.026000
      3 N2           4.9790    -0.2510    -0.7930 na         1 7KX      -0.321400
      4 C7           0.4920     2.0910     0.3040 ca         1 7KX      -0.116000
      5 C6          -0.6560     2.8910     0.2020 ca         1 7KX      -0.092000
      6 C9          -0.8990     0.0980     0.2900 ca         1 7KX      -0.089000
      7 C13          4.6050     0.9110    -1.4990 cc         1 7KX      -0.161100
      8 C8           0.3970     0.6790     0.3390 cp         1 7KX      -0.127500
      9 C1          -5.8160    -1.6530    -1.2620 c3         1 7KX      -0.077100
     10 C2          -5.4030    -1.0310     0.0900 c3         1 7KX      -0.159400
     11 C3          -3.8760    -0.9280     0.2280 c          1 7KX       0.603100
     12 O1          -3.1880    -1.9190     0.4420 o          1 7KX      -0.567100
     13 C5          -1.9250     2.2940     0.1420 ca         1 7KX      -0.158000
     14 C10          1.6220    -0.1790     0.4520 cp         1 7KX       0.226500
     15 C11          2.8470     0.0900    -0.2080 ca         1 7KX      -0.182800
     16 C12          3.2860     1.1110    -1.1340 cd         1 7KX      -0.213200
     17 C14          3.9280    -0.7460    -0.0340 ca         1 7KX       0.122500
     18 C15          2.6560    -2.0520     1.3420 ca         1 7KX       0.139900
     19 N4           1.5440    -1.2860     1.2250 nb         1 7KX      -0.201000
     20 H1           5.8960    -0.6870    -0.8330 hn         1 7KX       0.364000
     21 H2           1.4640     2.5740     0.3760 ha         1 7KX       0.121000
     22 H3          -0.5630     3.9750     0.1770 ha         1 7KX       0.113000
     23 H4          -0.9750    -0.9840     0.3140 ha         1 7KX       0.166000
     24 H5           5.2650     1.4590    -2.1680 h4         1 7KX       0.217000
     25 H6          -5.4060    -2.6650    -1.3670 hc         1 7KX       0.044367
     26 H7          -6.9080    -1.7170    -1.3370 hc         1 7KX       0.044367
     27 H8          -5.4510    -1.0440    -2.0980 hc         1 7KX       0.044367
     28 H9          -5.8570    -0.0350     0.1620 hc         1 7KX       0.056200
     29 H10         -5.7870    -1.6710     0.8940 hc         1 7KX       0.056200
     30 H11         -4.0920     1.0670    -0.0270 hn         1 7KX       0.146000
     31 H12         -2.8070     2.9260     0.0630 ha         1 7KX       0.108000
     32 H13          2.6680     1.9180    -1.5210 ha         1 7KX       0.212000
     33 H14          2.5760    -2.9340     1.9750 h5         1 7KX       0.051100
     34 N1          -3.3800     0.3660     0.1270 ns         1 7KX      -0.153000
@<TRIPOS>BOND
     1     1    17 ar  
     2     1    18 ar  
     3     2     6 ar  
     4     2    13 ar  
     5     2    34 1   
     6     3     7 1   
     7     3    17 1   
     8     3    20 1   
     9     4     5 ar  
    10     4     8 ar  
    11     4    21 1   
    12     5    13 ar  
    13     5    22 1   
    14     6     8 ar  
    15     6    23 1   
    16     7    16 2   
    17     7    24 1   
    18     8    14 1   
    19     9    10 1   
    20     9    25 1   
    21     9    26 1   
    22     9    27 1   
    23    10    11 1   
    24    10    28 1   
    25    10    29 1   
    26    11    12 2   
    27    11    34 1   
    28    13    31 1   
    29    14    15 ar  
    30    14    19 ar  
    31    15    16 1   
    32    15    17 ar  
    33    16    32 1   
    34    18    19 ar  
    35    18    33 1   
    36    30    34 1   
@<TRIPOS>SUBSTRUCTURE
     1 7KX         1 TEMP              0 ****  ****    0 ROOT
