@<TRIPOS>MOLECULE
7KY
   46    48     1     0     0
SMALL
No Charge or Current Charge


@<TRIPOS>ATOM
      1 CBB          4.0120     2.8530     2.5340 c3         1 7KY       0.151900
      2 OBA          3.6210     1.5460     2.0750 os         1 7KY      -0.436100
      3 CAJ          4.4490     0.8950     1.1980 c          1 7KY       0.618700
      4 OAK          5.4850     1.3690     0.7490 o          1 7KY      -0.468000
      5 CAE          3.8850    -0.4070     0.7340 ca         1 7KY      -0.196600
      6 CAD          4.4630    -1.5970     1.2090 ca         1 7KY       0.231100
      7 OAI          5.5090    -1.5550     2.0810 oh         1 7KY      -0.505100
      8 CAC          3.9640    -2.8390     0.8040 ca         1 7KY      -0.263000
      9 CAB          2.8840    -2.9010    -0.0790 ca         1 7KY       0.223100
     10 OAH          2.4120    -4.1220    -0.4600 oh         1 7KY      -0.521100
     11 CAA          2.2930    -1.7210    -0.5700 ca         1 7KY      -0.036000
     12 Cl1          0.9280    -1.8590    -1.6920 cl         1 7KY      -0.218000
     13 CAF          2.7900    -0.4560    -0.1690 ca         1 7KY       0.060700
     14 CAL          2.1570     0.8320    -0.7140 c3         1 7KY      -0.037100
     15 CAM          0.8900     1.2500     0.0680 c3         1 7KY      -0.100700
     16 CAN          0.2780     2.5270    -0.4470 cc         1 7KY       0.407800
     17 NAR          0.5850     3.7320     0.0080 nd         1 7KY      -0.675000
     18 CAQ         -0.1890     4.6150    -0.7150 cd         1 7KY       0.233900
     19 CAP         -0.9710     3.9430    -1.6180 cc         1 7KY      -0.230000
     20 NAO         -0.6690     2.6080    -1.4510 na         1 7KY      -0.164500
     21 CAS         -1.2650     1.4850    -2.1990 c3         1 7KY       0.116900
     22 CAT         -2.3190     0.6890    -1.4280 ca         1 7KY      -0.103300
     23 CAU         -3.0950     1.2800    -0.4070 ca         1 7KY      -0.091000
     24 CAV         -4.0510     0.5200     0.2890 ca         1 7KY      -0.084000
     25 CAW         -4.2410    -0.8340    -0.0330 ca         1 7KY      -0.008900
     26 Br1         -5.5410    -1.8680     0.9160 br         1 7KY      -0.091100
     27 CAX         -3.4810    -1.4280    -1.0530 ca         1 7KY      -0.084000
     28 CAY         -2.5260    -0.6670    -1.7490 ca         1 7KY      -0.091000
     29 H1           3.2640     3.2520     3.2300 h1         1 7KY       0.052700
     30 H2           4.9760     2.8120     3.0570 h1         1 7KY       0.052700
     31 H3           4.1010     3.5520     1.6930 h1         1 7KY       0.052700
     32 H4           5.7690    -2.4760     2.2930 ho         1 7KY       0.475000
     33 H5           4.4050    -3.7610     1.1720 ha         1 7KY       0.139000
     34 H6           1.6640    -3.9630    -1.0760 ho         1 7KY       0.485000
     35 H7           2.8720     1.6620    -0.6990 hc         1 7KY       0.063200
     36 H8           1.9040     0.7120    -1.7740 hc         1 7KY       0.063200
     37 H9           0.1520     0.4420     0.0330 hc         1 7KY       0.072700
     38 H10          1.1440     1.3760     1.1260 hc         1 7KY       0.072700
     39 H11         -0.1410     5.6840    -0.5460 h4         1 7KY       0.037100
     40 H12         -1.6910     4.3090    -2.3390 h4         1 7KY       0.154000
     41 H13         -1.7250     1.8830    -3.1130 h1         1 7KY       0.069700
     42 H14         -0.4570     0.8130    -2.5130 h1         1 7KY       0.069700
     43 H15         -2.9660     2.3280    -0.1460 ha         1 7KY       0.118000
     44 H16         -4.6440     0.9800     1.0760 ha         1 7KY       0.133000
     45 H17         -3.6310    -2.4750    -1.3040 ha         1 7KY       0.133000
     46 H18         -1.9440    -1.1370    -2.5390 ha         1 7KY       0.118000
@<TRIPOS>BOND
     1     1     2 1   
     2     1    29 1   
     3     1    30 1   
     4     1    31 1   
     5     2     3 1   
     6     3     4 2   
     7     3     5 1   
     8     5     6 ar  
     9     5    13 ar  
    10     6     7 1   
    11     6     8 ar  
    12     7    32 1   
    13     8     9 ar  
    14     8    33 1   
    15     9    10 1   
    16     9    11 ar  
    17    10    34 1   
    18    11    12 1   
    19    11    13 ar  
    20    13    14 1   
    21    14    15 1   
    22    14    35 1   
    23    14    36 1   
    24    15    16 1   
    25    15    37 1   
    26    15    38 1   
    27    16    17 2   
    28    16    20 1   
    29    17    18 1   
    30    18    19 2   
    31    18    39 1   
    32    19    20 1   
    33    19    40 1   
    34    20    21 1   
    35    21    22 1   
    36    21    41 1   
    37    21    42 1   
    38    22    23 ar  
    39    22    28 ar  
    40    23    24 ar  
    41    23    43 1   
    42    24    25 ar  
    43    24    44 1   
    44    25    26 1   
    45    25    27 ar  
    46    27    28 ar  
    47    27    45 1   
    48    28    46 1   
@<TRIPOS>SUBSTRUCTURE
     1 7KY         1 TEMP              0 ****  ****    0 ROOT
