@<TRIPOS>MOLECULE
7KY
   46    48     1     0     0
SMALL
abcg2


@<TRIPOS>ATOM
      1 CBB          3.9610     2.8890     2.1240 c3         1 7KY       0.151900
      2 OBA          3.6730     1.5470     1.7270 os         1 7KY      -0.436100
      3 CAJ          4.5890     0.8880     1.0380 c          1 7KY       0.618700
      4 OAK          5.7000     1.3040     0.8270 o          1 7KY      -0.468000
      5 CAE          4.0800    -0.4290     0.5600 ca         1 7KY      -0.196600
      6 CAD          4.8120    -1.5790     0.8850 ca         1 7KY       0.231100
      7 OAI          5.8980    -1.4290     1.6530 oh         1 7KY      -0.505100
      8 CAC          4.3950    -2.8260     0.4500 ca         1 7KY      -0.263000
      9 CAB          3.2560    -2.9460    -0.3320 ca         1 7KY       0.223100
     10 OAH          2.9050    -4.1710    -0.7290 oh         1 7KY      -0.521100
     11 CAA          2.5390    -1.7940    -0.6650 ca         1 7KY      -0.036000
     12 CL1          1.1340    -1.9990    -1.6720 cl         1 7KY      -0.218000
     13 CAF          2.9300    -0.5320    -0.2310 ca         1 7KY       0.060700
     14 CAL          2.1250     0.6790    -0.6210 c3         1 7KY      -0.037100
     15 CAM          0.9150     0.8870     0.3060 c3         1 7KY      -0.100700
     16 CAN          0.2360     2.1870     0.0480 cc         1 7KY       0.407800
     17 NAR          0.4510     3.2890     0.7260 nd         1 7KY      -0.675000
     18 CAQ         -0.3110     4.2530     0.1290 cd         1 7KY       0.233900
     19 CAP         -0.9910     3.7260    -0.9280 cc         1 7KY      -0.230000
     20 NAO         -0.6290     2.4060    -0.9750 na         1 7KY      -0.164500
     21 CAS         -1.1810     1.4150    -1.8810 c3         1 7KY       0.116900
     22 CAT         -2.4560     0.8070    -1.3560 ca         1 7KY      -0.103300
     23 CAU         -3.6450     1.5310    -1.3770 ca         1 7KY      -0.091000
     24 CAV         -4.8180     0.9960    -0.8690 ca         1 7KY      -0.084000
     25 CAW         -4.8000    -0.2860    -0.3370 ca         1 7KY      -0.008900
     26 BR1         -6.3920    -1.0240     0.3580 br         1 7KY      -0.091100
     27 CAX         -3.6340    -1.0330    -0.3140 ca         1 7KY      -0.084000
     28 CAY         -2.4690    -0.4770    -0.8270 ca         1 7KY      -0.091000
     29 H1           3.0200     3.2990     2.4760 h1         1 7KY       0.052700
     30 H2           4.6990     2.9110     2.9260 h1         1 7KY       0.052700
     31 H3           4.3210     3.4850     1.2860 h1         1 7KY       0.052700
     32 H4           6.3050    -2.2840     1.8360 ho         1 7KY       0.475000
     33 H5           4.9510    -3.7190     0.7120 ha         1 7KY       0.139000
     34 H6           2.1020    -4.1550    -1.2650 ho         1 7KY       0.485000
     35 H7           2.7420     1.5750    -0.6100 hc         1 7KY       0.063200
     36 H8           1.7910     0.5730    -1.6540 hc         1 7KY       0.063200
     37 H9           0.2200     0.0510     0.2130 hc         1 7KY       0.072700
     38 H10          1.2510     0.8970     1.3400 hc         1 7KY       0.072700
     39 H11         -0.3270     5.2710     0.4860 h4         1 7KY       0.037100
     40 H12         -1.6740     4.1620    -1.6380 h4         1 7KY       0.154000
     41 H13         -1.3520     1.9010    -2.8420 h1         1 7KY       0.069700
     42 H14         -0.4310     0.6420    -2.0500 h1         1 7KY       0.069700
     43 H15         -3.6700     2.5270    -1.8020 ha         1 7KY       0.118000
     44 H16         -5.7310     1.5760    -0.8990 ha         1 7KY       0.133000
     45 H17         -3.6170    -2.0350     0.0930 ha         1 7KY       0.133000
     46 H18         -1.5640    -1.0710    -0.8130 ha         1 7KY       0.118000
@<TRIPOS>BOND
     1     1     2 1   
     2     1    29 1   
     3     1    30 1   
     4     1    31 1   
     5     2     3 1   
     6     3     4 2   
     7     3     5 1   
     8     5     6 ar  
     9     5    13 ar  
    10     6     7 1   
    11     6     8 ar  
    12     7    32 1   
    13     8     9 ar  
    14     8    33 1   
    15     9    10 1   
    16     9    11 ar  
    17    10    34 1   
    18    11    12 1   
    19    11    13 ar  
    20    13    14 1   
    21    14    15 1   
    22    14    35 1   
    23    14    36 1   
    24    15    16 1   
    25    15    37 1   
    26    15    38 1   
    27    16    17 2   
    28    16    20 1   
    29    17    18 1   
    30    18    19 2   
    31    18    39 1   
    32    19    20 1   
    33    19    40 1   
    34    20    21 1   
    35    21    22 1   
    36    21    41 1   
    37    21    42 1   
    38    22    23 ar  
    39    22    28 ar  
    40    23    24 ar  
    41    23    43 1   
    42    24    25 ar  
    43    24    44 1   
    44    25    26 1   
    45    25    27 ar  
    46    27    28 ar  
    47    27    45 1   
    48    28    46 1   
@<TRIPOS>SUBSTRUCTURE
     1 7KY         1 TEMP              0 ****  ****    0 ROOT
