@<TRIPOS>MOLECULE
7KZ
   64    66     1     0     0
SMALL
abcg2


@<TRIPOS>ATOM
      1 C4           4.5730     0.9430     0.1380 c3         1 7KZ      -0.096400
      2 C5           3.4500    -0.0820     0.1530 c3         1 7KZ       0.243800
      3 C6           0.9870    -0.0840     0.1860 ca         1 7KZ       0.429900
      4 N1          -0.1030     0.7080     0.2780 nb         1 7KZ      -0.346000
      5 C7          -1.2860     0.1350     0.2460 ca         1 7KZ       0.440900
      6 C8          -2.3320     2.3660     0.3690 c6         1 7KZ       0.239500
      7 N2          -2.3730     0.9180     0.3380 nu         1 7KZ      -0.926100
      8 C9          -3.6360     2.9030     0.9420 c6         1 7KZ      -0.093900
      9 C10         -3.6390     4.4240     0.9310 c6         1 7KZ       0.167800
     10 C12         -2.1490     4.4950    -0.9390 c6         1 7KZ       0.167800
     11 N3          -3.4170     4.9520    -0.4010 n3         1 7KZ      -0.716600
     12 C13         -2.0920     2.9780    -1.0090 c6         1 7KZ      -0.093900
     13 C14         -1.4170    -1.2930     0.1310 ca         1 7KZ      -0.223000
     14 C15         -2.6470    -1.9880     0.1160 ca         1 7KZ      -0.129000
     15 N4           1.0020    -1.3940     0.0630 nb         1 7KZ      -0.295000
     16 C19         -0.4260    -6.1880    -0.3610 c3         1 7KZ       0.143900
     17 C18         -1.4570    -4.0750    -0.1160 ca         1 7KZ       0.165100
     18 C16         -2.6820    -3.3510    -0.0080 ca         1 7KZ       0.082100
     19 O           -3.7960    -4.1090    -0.0340 os         1 7KZ      -0.320100
     20 C17         -5.0390    -3.4520     0.0880 c3         1 7KZ       0.144900
     21 C20         -0.2580    -3.4070    -0.0930 ca         1 7KZ      -0.205000
     22 C21         -0.2090    -2.0000     0.0350 ca         1 7KZ       0.118000
     23 N            2.1660     0.5710     0.2090 nu         1 7KZ      -0.935100
     24 H1           4.4410     1.6160    -0.7160 hc         1 7KZ       0.043200
     25 H2           4.5130     1.5650     1.0380 hc         1 7KZ       0.043200
     26 H4           3.5120    -0.7070    -0.7430 h1         1 7KZ       0.049200
     27 H5           3.5790    -0.7570     1.0070 h1         1 7KZ       0.049200
     28 H6          -1.5130     2.6620     1.0300 h1         1 7KZ       0.077700
     29 H7          -3.2760     0.5020     0.1820 hn         1 7KZ       0.490000
     30 H8          -4.4810     2.5340     0.3500 hc         1 7KZ       0.054200
     31 H9          -3.7770     2.5500     1.9660 hc         1 7KZ       0.054200
     32 H10         -4.6040     4.7850     1.2960 h1         1 7KZ       0.033200
     33 H11         -2.8770     4.7920     1.6420 h1         1 7KZ       0.033200
     34 H12         -3.3750     6.7710    -1.4280 h1         1 7KZ       0.031033
     35 H13         -4.4830     6.7170    -0.0580 h1         1 7KZ       0.031033
     36 H14         -2.7420     6.8780     0.2220 h1         1 7KZ       0.031033
     37 H15         -2.0220     4.9100    -1.9420 h1         1 7KZ       0.033200
     38 H16         -1.2980     4.8670    -0.3380 h1         1 7KZ       0.033200
     39 H18         -1.1200     2.6680    -1.3980 hc         1 7KZ       0.054200
     40 H19         -2.8560     2.6140    -1.7020 hc         1 7KZ       0.054200
     41 H20         -3.5770    -1.4440     0.2110 ha         1 7KZ       0.107000
     42 H21         -0.7570    -7.2200    -0.4380 h1         1 7KZ       0.043033
     43 H22          0.1400    -5.9270    -1.2590 h1         1 7KZ       0.043033
     44 H23          0.2270    -6.0880     0.5090 h1         1 7KZ       0.043033
     45 H24         -5.1280    -2.9230     1.0410 h1         1 7KZ       0.037367
     46 H25         -5.2060    -2.7390    -0.7250 h1         1 7KZ       0.037367
     47 H26         -5.8050    -4.2220     0.0410 h1         1 7KZ       0.037367
     48 H27          0.6820    -3.9360    -0.1710 ha         1 7KZ       0.137000
     49 H28          2.1290     1.5650     0.3550 hn         1 7KZ       0.501000
     50 C1           5.9440     0.2850     0.0620 c3         1 7KZ      -0.072400
     51 C2           7.0880     1.2910     0.0510 c3         1 7KZ      -0.076400
     52 C3           8.4610     0.6360    -0.0350 c3         1 7KZ      -0.075400
     53 C22          9.5980     1.6480    -0.0430 c3         1 7KZ      -0.088100
     54 H3           6.0690    -0.3970     0.9100 hc         1 7KZ       0.041700
     55 H17          6.0000    -0.3370    -0.8380 hc         1 7KZ       0.041700
     56 H29          6.9610     1.9770    -0.7940 hc         1 7KZ       0.037700
     57 H30          7.0370     1.9110     0.9530 hc         1 7KZ       0.037700
     58 H31          8.5860    -0.0510     0.8090 hc         1 7KZ       0.037700
     59 H32          8.5110     0.0180    -0.9370 hc         1 7KZ       0.037700
     60 H33         10.5720     1.1590    -0.0990 hc         1 7KZ       0.031700
     61 H34          9.5170     2.3220    -0.8980 hc         1 7KZ       0.031700
     62 H35          9.5870     2.2590     0.8610 hc         1 7KZ       0.031700
     63 O1          -1.5950    -5.4010    -0.2330 os         1 7KZ      -0.319100
     64 C11         -3.5020     6.3940    -0.4120 c3         1 7KZ       0.152100
@<TRIPOS>BOND
     1     1     2 1   
     2     1    24 1   
     3     1    25 1   
     4     1    50 1   
     5     2    23 1   
     6     2    26 1   
     7     2    27 1   
     8     3     4 ar  
     9     3    15 ar  
    10     3    23 1   
    11     4     5 ar  
    12     5     7 1   
    13     5    13 ar  
    14     6     7 1   
    15     6     8 1   
    16     6    12 1   
    17     6    28 1   
    18     7    29 1   
    19     8     9 1   
    20     8    30 1   
    21     8    31 1   
    22     9    11 1   
    23     9    32 1   
    24     9    33 1   
    25    10    11 1   
    26    10    12 1   
    27    10    37 1   
    28    10    38 1   
    29    11    64 1   
    30    12    39 1   
    31    12    40 1   
    32    13    14 ar  
    33    13    22 ar  
    34    14    18 ar  
    35    14    41 1   
    36    15    22 ar  
    37    16    42 1   
    38    16    43 1   
    39    16    44 1   
    40    16    63 1   
    41    17    18 ar  
    42    17    21 ar  
    43    17    63 1   
    44    18    19 1   
    45    19    20 1   
    46    20    45 1   
    47    20    46 1   
    48    20    47 1   
    49    21    22 ar  
    50    21    48 1   
    51    23    49 1   
    52    34    64 1   
    53    35    64 1   
    54    36    64 1   
    55    50    51 1   
    56    50    54 1   
    57    50    55 1   
    58    51    52 1   
    59    51    56 1   
    60    51    57 1   
    61    52    53 1   
    62    52    58 1   
    63    52    59 1   
    64    53    60 1   
    65    53    61 1   
    66    53    62 1   
@<TRIPOS>SUBSTRUCTURE
     1 7KZ         1 TEMP              0 ****  ****    0 ROOT
