@<TRIPOS>MOLECULE
7KZ
   64    66     1     0     0
SMALL
No Charge or Current Charge


@<TRIPOS>ATOM
      1 C4           4.6970     0.8920     0.2150 c3         1 7KZ      -0.096400
      2 C5           3.5780    -0.1650     0.1150 c3         1 7KZ       0.243800
      3 C6           1.0250    -0.1560     0.2650 ca         1 7KZ       0.429900
      4 N1          -0.0150     0.6580     0.4510 nb         1 7KZ      -0.346000
      5 C7          -1.2290     0.0870     0.4290 ca         1 7KZ       0.440900
      6 C8          -2.3000     2.4060     0.5020 c6         1 7KZ       0.239500
      7 N2          -2.3180     0.9360     0.6240 nu         1 7KZ      -0.926100
      8 C9          -3.5710     2.9930     1.1520 c6         1 7KZ      -0.093900
      9 C10         -3.6150     4.5260     0.9660 c6         1 7KZ       0.167800
     10 C12         -2.3120     4.3610    -1.1180 c6         1 7KZ       0.167800
     11 N3          -3.5390     4.9010    -0.4720 n3         1 7KZ      -0.716600
     12 C13         -2.2320     2.8240    -0.9850 c6         1 7KZ      -0.093900
     13 C14         -1.3940    -1.3040     0.2230 ca         1 7KZ      -0.223000
     14 C15         -2.6610    -1.9350     0.1960 ca         1 7KZ      -0.129000
     15 N4           0.9900    -1.4820     0.0600 nb         1 7KZ      -0.295000
     16 C19         -0.5670    -6.3150    -0.6040 c3         1 7KZ       0.143900
     17 C18         -1.5820    -4.0920    -0.2010 ca         1 7KZ       0.165100
     18 C16         -2.7590    -3.3300    -0.0160 ca         1 7KZ       0.082100
     19 O           -3.9820    -3.9820    -0.0490 os         1 7KZ      -0.320100
     20 C17         -5.2340    -3.2950     0.1270 c3         1 7KZ       0.144900
     21 C20         -0.3230    -3.4550    -0.1720 ca         1 7KZ      -0.205000
     22 C21         -0.2210    -2.0710     0.0370 ca         1 7KZ       0.118000
     23 N            2.2600     0.4630     0.2910 nu         1 7KZ      -0.935100
     24 H1           4.5370     1.6610    -0.5510 hc         1 7KZ       0.043200
     25 H2           4.6390     1.3880     1.1910 hc         1 7KZ       0.043200
     26 H4           3.6320    -0.6580    -0.8660 h1         1 7KZ       0.049200
     27 H5           3.7350    -0.9310     0.8870 h1         1 7KZ       0.049200
     28 H6          -1.4290     2.8270     1.0320 h1         1 7KZ       0.077700
     29 H7          -3.2230     0.4740     0.6190 hn         1 7KZ       0.490000
     30 H8          -4.4700     2.5470     0.7040 hc         1 7KZ       0.054200
     31 H9          -3.5950     2.7510     2.2230 hc         1 7KZ       0.054200
     32 H10         -4.5460     4.9080     1.4100 h1         1 7KZ       0.033200
     33 H11         -2.7810     4.9800     1.5230 h1         1 7KZ       0.033200
     34 H12         -3.6960     6.5960    -1.7540 h1         1 7KZ       0.031033
     35 H13         -4.6350     6.7150    -0.2510 h1         1 7KZ       0.031033
     36 H14         -2.8660     6.9090    -0.2100 h1         1 7KZ       0.031033
     37 H15         -2.2980     4.6230    -2.1870 h1         1 7KZ       0.033200
     38 H16         -1.4140     4.8080    -0.6650 h1         1 7KZ       0.033200
     39 H18         -1.3010     2.4650    -1.4410 hc         1 7KZ       0.054200
     40 H19         -3.0580     2.3650    -1.5450 hc         1 7KZ       0.054200
     41 H20         -3.5610    -1.3470     0.3370 ha         1 7KZ       0.107000
     42 H21         -0.8940    -7.3520    -0.7470 h1         1 7KZ       0.043033
     43 H22          0.0010    -6.0130    -1.4930 h1         1 7KZ       0.043033
     44 H23          0.1000    -6.2870     0.2680 h1         1 7KZ       0.043033
     45 H24         -5.2770    -2.8080     1.1090 h1         1 7KZ       0.037367
     46 H25         -5.3740    -2.5340    -0.6520 h1         1 7KZ       0.037367
     47 H26         -6.0680    -4.0040     0.0630 h1         1 7KZ       0.037367
     48 H27          0.5920    -4.0210    -0.3120 ha         1 7KZ       0.137000
     49 H28          2.2320     1.4690     0.4520 hn         1 7KZ       0.501000
     50 C1           6.1090     0.2890     0.0380 c3         1 7KZ      -0.072400
     51 C2           7.2330     1.3440     0.1370 c3         1 7KZ      -0.076400
     52 C3           8.6440     0.7420    -0.0400 c3         1 7KZ      -0.075400
     53 C22          9.7660     1.7940     0.0580 c3         1 7KZ      -0.088100
     54 H3           6.2700    -0.4810     0.8020 hc         1 7KZ       0.041700
     55 H17          6.1680    -0.2100    -0.9380 hc         1 7KZ       0.041700
     56 H29          7.0720     2.1150    -0.6280 hc         1 7KZ       0.037700
     57 H30          7.1740     1.8430     1.1120 hc         1 7KZ       0.037700
     58 H31          8.8100    -0.0280     0.7240 hc         1 7KZ       0.037700
     59 H32          8.7080     0.2440    -1.0150 hc         1 7KZ       0.037700
     60 H33         10.7460     1.3210    -0.0730 hc         1 7KZ       0.031700
     61 H34          9.6480     2.5600    -0.7170 hc         1 7KZ       0.031700
     62 H35          9.7510     2.2870     1.0380 hc         1 7KZ       0.031700
     63 O1          -1.7040    -5.4570    -0.4070 os         1 7KZ      -0.319100
     64 C11         -3.6900     6.3570    -0.6820 c3         1 7KZ       0.152100
@<TRIPOS>BOND
     1     1     2 1   
     2     1    24 1   
     3     1    25 1   
     4     1    50 1   
     5     2    23 1   
     6     2    26 1   
     7     2    27 1   
     8     3     4 ar  
     9     3    15 ar  
    10     3    23 1   
    11     4     5 ar  
    12     5     7 1   
    13     5    13 ar  
    14     6     7 1   
    15     6     8 1   
    16     6    12 1   
    17     6    28 1   
    18     7    29 1   
    19     8     9 1   
    20     8    30 1   
    21     8    31 1   
    22     9    11 1   
    23     9    32 1   
    24     9    33 1   
    25    10    11 1   
    26    10    12 1   
    27    10    37 1   
    28    10    38 1   
    29    11    64 1   
    30    12    39 1   
    31    12    40 1   
    32    13    14 ar  
    33    13    22 ar  
    34    14    18 ar  
    35    14    41 1   
    36    15    22 ar  
    37    16    42 1   
    38    16    43 1   
    39    16    44 1   
    40    16    63 1   
    41    17    18 ar  
    42    17    21 ar  
    43    17    63 1   
    44    18    19 1   
    45    19    20 1   
    46    20    45 1   
    47    20    46 1   
    48    20    47 1   
    49    21    22 ar  
    50    21    48 1   
    51    23    49 1   
    52    34    64 1   
    53    35    64 1   
    54    36    64 1   
    55    50    51 1   
    56    50    54 1   
    57    50    55 1   
    58    51    52 1   
    59    51    56 1   
    60    51    57 1   
    61    52    53 1   
    62    52    58 1   
    63    52    59 1   
    64    53    60 1   
    65    53    61 1   
    66    53    62 1   
@<TRIPOS>SUBSTRUCTURE
     1 7KZ         1 TEMP              0 ****  ****    0 ROOT
