@<TRIPOS>MOLECULE
7L0
   36    38     1     0     0
SMALL
bcc


@<TRIPOS>ATOM
      1 CAV          7.9780    -0.2080     0.7250 c3         1 7L0      -0.182100
      2 CAU          6.7070     0.3220     0.1140 c          1 7L0       0.680100
      3 OAW          6.6840     1.2610    -0.6510 o          1 7L0      -0.527100
      4 NAT          5.5830    -0.3400     0.5310 ns         1 7L0      -0.476400
      5 CAN          4.2780    -0.0840     0.1830 cc         1 7L0       0.615900
      6 NAO          3.8610     0.9340    -0.5750 nc         1 7L0      -0.381300
      7 NAM          3.3390    -0.9040     0.6320 nd         1 7L0      -0.663100
      8 NAD          2.2300    -0.3660     0.1140 na         1 7L0       0.205000
      9 CAC          0.9760    -0.8310     0.2810 cd         1 7L0      -0.020300
     10 CAE          2.5470     0.7490    -0.6160 cd         1 7L0       0.006700
     11 CAF          1.5070     1.4560    -1.2360 cd         1 7L0      -0.107000
     12 CAG          0.2300     0.9980    -1.0850 cc         1 7L0      -0.091000
     13 CAB         -0.0560    -0.1620    -0.3200 cc         1 7L0      -0.092000
     14 CAA         -1.4370    -0.6440    -0.1690 ca         1 7L0      -0.160300
     15 CAL         -2.5040     0.2380    -0.0510 ca         1 7L0       0.010000
     16 CAH         -1.7340    -2.0090    -0.1490 ca         1 7L0       0.461200
     17 NAI         -2.9530    -2.5020    -0.0000 nb         1 7L0      -0.672000
     18 CAJ         -3.9670    -1.6570     0.1180 ca         1 7L0       0.500200
     19 CAK         -3.7780    -0.2830     0.0840 ca         1 7L0      -0.390800
     20 SAP         -5.1700     0.8110     0.2240 sy         1 7L0       1.099300
     21 CAQ         -5.6800     1.0440    -1.4620 c3         1 7L0      -0.226300
     22 OAS         -6.2290     0.1080     0.9390 o          1 7L0      -0.587800
     23 OAR         -4.6850     2.0860     0.7430 o          1 7L0      -0.587800
     24 HAV1         8.2270     0.3900     1.6030 hc         1 7L0       0.065700
     25 HAV2         7.9030    -1.2480     1.0400 hc         1 7L0       0.065700
     26 HAV3         8.7950    -0.1110     0.0140 hc         1 7L0       0.065700
     27 HAC          0.8670    -1.7060     0.9060 h4         1 7L0       0.184000
     28 HAF          1.7320     2.3350    -1.8230 ha         1 7L0       0.174000
     29 HAG         -0.5800     1.5220    -1.5760 ha         1 7L0       0.145000
     30 HAL         -2.3410     1.3090    -0.0470 ha         1 7L0       0.164000
     31 HAH         -0.9390    -2.7350    -0.2760 h4         1 7L0       0.027100
     32 HAJ         -4.9540    -2.0870     0.2410 h4         1 7L0       0.047100
     33 HAQ1        -5.9730     0.0870    -1.8870 h1         1 7L0       0.105033
     34 HAQ2        -6.5310     1.7260    -1.4510 h1         1 7L0       0.105033
     35 HAQ3        -4.8610     1.4780    -2.0300 h1         1 7L0       0.105033
     36 HAT          5.7070    -1.1280     1.1490 hn         1 7L0       0.335500
@<TRIPOS>BOND
     1     1     2 1   
     2     1    24 1   
     3     1    25 1   
     4     1    26 1   
     5     2     3 2   
     6     2     4 1   
     7     4     5 1   
     8     4    36 1   
     9     5     6 1   
    10     5     7 2   
    11     6    10 2   
    12     7     8 1   
    13     8     9 1   
    14     8    10 1   
    15     9    13 2   
    16     9    27 1   
    17    10    11 1   
    18    11    12 2   
    19    11    28 1   
    20    12    13 1   
    21    12    29 1   
    22    13    14 1   
    23    14    15 ar  
    24    14    16 ar  
    25    15    19 ar  
    26    15    30 1   
    27    16    17 ar  
    28    16    31 1   
    29    17    18 ar  
    30    18    19 ar  
    31    18    32 1   
    32    19    20 1   
    33    20    21 1   
    34    20    22 2   
    35    20    23 2   
    36    21    33 1   
    37    21    34 1   
    38    21    35 1   
@<TRIPOS>SUBSTRUCTURE
     1 7L0         1 TEMP              0 ****  ****    0 ROOT
