@<TRIPOS>MOLECULE
7L0
   36    38     1     0     0
SMALL
No Charge or Current Charge


@<TRIPOS>ATOM
      1 CAV          8.0380    -0.2910     0.5290 c3         1 7L0      -0.182100
      2 CAU          6.7170     0.3420     0.1050 c          1 7L0       0.613100
      3 OAW          6.6800     1.4330    -0.4440 o          1 7L0      -0.527100
      4 NAT          5.6130    -0.4210     0.3980 ns         1 7L0      -0.409400
      5 CAN          4.2920    -0.1670     0.1640 cc         1 7L0       0.615900
      6 NAO          3.8630     0.9860    -0.4460 nc         1 7L0      -0.381300
      7 NAM          3.3870    -1.0570     0.5370 nd         1 7L0      -0.663100
      8 NAD          2.2820    -0.3940     0.1090 na         1 7L0       0.306400
      9 CAC          0.9860    -0.8850     0.2690 cd         1 7L0      -0.053000
     10 CAE          2.5630     0.8140    -0.4650 cd         1 7L0      -0.044000
     11 CAF          1.5570     1.6820    -0.9660 cd         1 7L0      -0.089000
     12 CAG          0.2630     1.2260    -0.8390 cc         1 7L0      -0.073000
     13 CAB         -0.0360    -0.0680    -0.2410 cc         1 7L0      -0.092000
     14 CAA         -1.4220    -0.5630    -0.0390 ca         1 7L0      -0.095000
     15 CAL         -2.5270     0.3150    -0.1090 ca         1 7L0       0.028000
     16 CAH         -1.7150    -1.9270     0.2190 ca         1 7L0       0.395900
     17 NAI         -2.9640    -2.4180     0.3990 nb         1 7L0      -0.672000
     18 CAJ         -4.0020    -1.5590     0.3340 ca         1 7L0       0.434900
     19 CAK         -3.8230    -0.1990     0.0850 ca         1 7L0      -0.325500
     20 SAP         -5.2610     0.8490     0.0160 sy         1 7L0       1.068500
     21 CAQ         -5.7250     0.7880    -1.7120 c3         1 7L0      -0.337100
     22 OAS         -6.3490     0.2110     0.7670 o          1 7L0      -0.517000
     23 OAR         -4.8510     2.2310     0.2920 o          1 7L0      -0.517000
     24 HAV1         7.9970    -0.5230     1.5990 hc         1 7L0       0.065700
     25 HAV2         8.1200    -1.2860     0.0760 hc         1 7L0       0.065700
     26 HAV3         8.9020     0.3370     0.2840 hc         1 7L0       0.065700
     27 HAC          0.8920    -1.8310     0.7810 h4         1 7L0       0.166000
     28 HAF          1.7920     2.6410    -1.4190 ha         1 7L0       0.156000
     29 HAG         -0.5390     1.8460    -1.2220 ha         1 7L0       0.127000
     30 HAL         -2.3940     1.3800    -0.2830 ha         1 7L0       0.146000
     31 HAH         -0.9320    -2.6810     0.2550 h4         1 7L0       0.027100
     32 HAJ         -4.9920    -1.9900     0.4820 h4         1 7L0       0.047100
     33 HAQ1        -5.9470    -0.2530    -1.9730 h1         1 7L0       0.105033
     34 HAQ2        -6.6100     1.4180    -1.8500 h1         1 7L0       0.105033
     35 HAQ3        -4.8860     1.1650    -2.3060 h1         1 7L0       0.105033
     36 HAT          5.8100    -1.2990     0.8530 hn         1 7L0       0.335500
@<TRIPOS>BOND
     1     1     2 1   
     2     1    24 1   
     3     1    25 1   
     4     1    26 1   
     5     2     3 2   
     6     2     4 1   
     7     4     5 1   
     8     4    36 1   
     9     5     6 1   
    10     5     7 2   
    11     6    10 2   
    12     7     8 1   
    13     8     9 1   
    14     8    10 1   
    15     9    13 2   
    16     9    27 1   
    17    10    11 1   
    18    11    12 2   
    19    11    28 1   
    20    12    13 1   
    21    12    29 1   
    22    13    14 1   
    23    14    15 ar  
    24    14    16 ar  
    25    15    19 ar  
    26    15    30 1   
    27    16    17 ar  
    28    16    31 1   
    29    17    18 ar  
    30    18    19 ar  
    31    18    32 1   
    32    19    20 1   
    33    20    21 1   
    34    20    22 2   
    35    20    23 2   
    36    21    33 1   
    37    21    34 1   
    38    21    35 1   
@<TRIPOS>SUBSTRUCTURE
     1 7L0         1 TEMP              0 ****  ****    0 ROOT
