@<TRIPOS>MOLECULE
7L3
   42    43     1     0     0
SMALL
No Charge or Current Charge


@<TRIPOS>ATOM
      1 CAV          6.9210    -1.1400     0.2600 c3         1 7L3      -0.084100
      2 CAU          5.9430    -0.0900     0.8600 c3         1 7L3      -0.008700
      3 CAW          5.5760    -0.5480     2.2980 c3         1 7L3      -0.084100
      4 CAX          6.6880     1.2710     0.9270 c3         1 7L3      -0.084100
      5 CAR          4.6430     0.0770     0.0280 ca         1 7L3      -0.008300
      6 CAS          3.6580     1.0000     0.4520 ca         1 7L3      -0.132000
      7 CAT          2.4660     1.1820    -0.2700 ca         1 7L3      -0.011500
      8 CAQ          4.3890    -0.6610    -1.1550 ca         1 7L3      -0.132000
      9 CAP          3.1980    -0.4820    -1.8800 ca         1 7L3      -0.011500
     10 CAN          2.2320     0.4410    -1.4430 ca         1 7L3      -0.279500
     11 SAL          0.7060     0.6480    -2.3780 sy         1 7L3       1.211100
     12 OAM         -0.0120     1.8050    -1.8340 o          1 7L3      -0.544000
     13 OAO          1.0020     0.5590    -3.8110 o          1 7L3      -0.544000
     14 NAK         -0.1080    -0.7160    -1.9610 ne         1 7L3      -0.815300
     15 CAB         -1.0550    -0.6310    -1.0770 cd         1 7L3       0.695100
     16 SAA         -0.9470    -0.0660     0.5890 ss         1 7L3       0.086600
     17 CAE         -2.6180    -0.5390     0.7640 cc         1 7L3       0.068600
     18 SAF         -3.4720    -0.2750     2.3410 sy         1 7L3       1.142400
     19 OAG         -2.8060     0.7720     3.1150 o          1 7L3      -0.520000
     20 OAH         -4.9240    -0.3070     2.1670 o          1 7L3      -0.520000
     21 NAI         -3.1670    -1.6370     3.2060 n8         1 7L3      -1.054100
     22 NAD         -3.2120    -1.0910    -0.2560 n2         1 7L3      -0.258400
     23 NAC         -2.3180    -1.1670    -1.3100 na         1 7L3      -0.393700
     24 CAJ         -2.7520    -1.8000    -2.5740 c3         1 7L3       0.232100
     25 H1           6.4570    -2.1320     0.2140 hc         1 7L3       0.037922
     26 H2           7.2380    -0.8540    -0.7510 hc         1 7L3       0.037922
     27 H3           7.8260    -1.2280     0.8740 hc         1 7L3       0.037922
     28 H4           5.0150    -1.4900     2.2720 hc         1 7L3       0.037922
     29 H5           6.4780    -0.7070     2.9010 hc         1 7L3       0.037922
     30 H6           4.9610     0.1970     2.8160 hc         1 7L3       0.037922
     31 H7           7.6300     1.1760     1.4820 hc         1 7L3       0.037922
     32 H8           6.9240     1.6330    -0.0810 hc         1 7L3       0.037922
     33 H9           6.0870     2.0380     1.4290 hc         1 7L3       0.037922
     34 H10          3.8080     1.5880     1.3520 ha         1 7L3       0.117500
     35 H11          1.7340     1.9030     0.0900 ha         1 7L3       0.134000
     36 H12          5.1010    -1.3860    -1.5350 ha         1 7L3       0.117500
     37 H13          3.0290    -1.0680    -2.7830 ha         1 7L3       0.134000
     38 H15         -4.1160    -1.9830     3.3360 hn         1 7L3       0.499000
     39 H16         -2.9660    -1.2340     4.1200 hn         1 7L3       0.499000
     40 H17         -2.1190    -2.6690    -2.7900 h1         1 7L3       0.068367
     41 H18         -3.7960    -2.1300    -2.4980 h1         1 7L3       0.068367
     42 H19         -2.6660    -1.0810    -3.3980 h1         1 7L3       0.068367
@<TRIPOS>BOND
     1     1     2 1   
     2     1    25 1   
     3     1    26 1   
     4     1    27 1   
     5     2     3 1   
     6     2     4 1   
     7     2     5 1   
     8     3    28 1   
     9     3    29 1   
    10     3    30 1   
    11     4    31 1   
    12     4    32 1   
    13     4    33 1   
    14     5     6 ar  
    15     5     8 ar  
    16     6     7 ar  
    17     6    34 1   
    18     7    10 ar  
    19     7    35 1   
    20     8     9 ar  
    21     8    36 1   
    22     9    10 ar  
    23     9    37 1   
    24    10    11 1   
    25    11    12 2   
    26    11    13 2   
    27    11    14 1   
    28    14    15 2   
    29    15    16 1   
    30    15    23 1   
    31    16    17 1   
    32    17    18 1   
    33    17    22 2   
    34    18    19 2   
    35    18    20 2   
    36    18    21 1   
    37    21    38 1   
    38    21    39 1   
    39    22    23 1   
    40    23    24 1   
    41    24    40 1   
    42    24    41 1   
    43    24    42 1   
@<TRIPOS>SUBSTRUCTURE
     1 7L3         1 TEMP              0 ****  ****    0 ROOT
