@<TRIPOS>MOLECULE
7L3
   42    43     1     0     0
SMALL
abcg2


@<TRIPOS>ATOM
      1 CAV          6.8570    -1.0330    -0.2720 c3         1 7L3      -0.084100
      2 CAU          5.8490    -0.3690     0.6660 c3         1 7L3      -0.008700
      3 CAW          5.5250    -1.3510     1.8000 c3         1 7L3      -0.084100
      4 CAX          6.4920     0.8970     1.2510 c3         1 7L3      -0.084100
      5 CAR          4.5590     0.0140    -0.0460 ca         1 7L3      -0.008300
      6 CAS          3.5220     0.6090     0.6780 ca         1 7L3      -0.132000
      7 CAT          2.3330     0.9780     0.0770 ca         1 7L3      -0.011500
      8 CAQ          4.3600    -0.1940    -1.4100 ca         1 7L3      -0.132000
      9 CAP          3.1750     0.1690    -2.0340 ca         1 7L3      -0.011500
     10 CAN          2.1660     0.7520    -1.2840 ca         1 7L3      -0.279500
     11 SAL          0.6380     1.1770    -2.0540 sy         1 7L3       1.211100
     12 OAM          0.0110     2.2470    -1.2730 o          1 7L3      -0.544000
     13 OAO          0.8720     1.3940    -3.4700 o          1 7L3      -0.544000
     14 NAK         -0.2310    -0.2000    -1.9130 ne         1 7L3      -0.815300
     15 CAB         -1.1970    -0.2920    -1.0670 cd         1 7L3       0.695100
     16 SAA         -1.8910     0.9000     0.0250 ss         1 7L3       0.086600
     17 CAE         -2.9720    -0.3460     0.5550 cc         1 7L3       0.068600
     18 SAF         -4.1610    -0.0530     1.8380 sy         1 7L3       1.142400
     19 OAG         -4.5160     1.3460     1.7100 o          1 7L3      -0.520000
     20 OAH         -5.1470    -1.1040     1.7300 o          1 7L3      -0.520000
     21 NAI         -3.2460    -0.2050     3.1760 n8         1 7L3      -1.054100
     22 NAD         -2.8580    -1.4790    -0.0150 n2         1 7L3      -0.258400
     23 NAC         -1.8770    -1.4540    -0.9180 na         1 7L3      -0.393700
     24 CAJ         -1.5760    -2.6400    -1.6980 c3         1 7L3       0.232100
     25 H1           6.4670    -1.9550    -0.7090 hc         1 7L3       0.037922
     26 H2           7.1630    -0.3740    -1.0870 hc         1 7L3       0.037922
     27 H3           7.7560    -1.2920     0.2890 hc         1 7L3       0.037922
     28 H4           5.0500    -2.2560     1.4180 hc         1 7L3       0.037922
     29 H5           6.4430    -1.6460     2.3130 hc         1 7L3       0.037922
     30 H6           4.8590    -0.9130     2.5450 hc         1 7L3       0.037922
     31 H7           7.4300     0.6430     1.7490 hc         1 7L3       0.037922
     32 H8           6.7120     1.6240     0.4690 hc         1 7L3       0.037922
     33 H9           5.8480     1.3800     1.9870 hc         1 7L3       0.037922
     34 H10          3.6350     0.7990     1.7380 ha         1 7L3       0.117500
     35 H11          1.5570     1.4450     0.6670 ha         1 7L3       0.134000
     36 H12          5.1320    -0.6450    -2.0160 ha         1 7L3       0.117500
     37 H13          3.0540    -0.0050    -3.0940 ha         1 7L3       0.134000
     38 H15         -3.2550    -1.1250     3.6020 hn         1 7L3       0.499000
     39 H16         -3.3610     0.5480     3.8450 hn         1 7L3       0.499000
     40 H17         -0.5440    -2.9430    -1.5360 h1         1 7L3       0.068367
     41 H18         -2.2440    -3.4290    -1.3700 h1         1 7L3       0.068367
     42 H19         -1.7330    -2.4430    -2.7560 h1         1 7L3       0.068367
@<TRIPOS>BOND
     1     1     2 1   
     2     1    25 1   
     3     1    26 1   
     4     1    27 1   
     5     2     3 1   
     6     2     4 1   
     7     2     5 1   
     8     3    28 1   
     9     3    29 1   
    10     3    30 1   
    11     4    31 1   
    12     4    32 1   
    13     4    33 1   
    14     5     6 ar  
    15     5     8 ar  
    16     6     7 ar  
    17     6    34 1   
    18     7    10 ar  
    19     7    35 1   
    20     8     9 ar  
    21     8    36 1   
    22     9    10 ar  
    23     9    37 1   
    24    10    11 1   
    25    11    12 2   
    26    11    13 2   
    27    11    14 1   
    28    14    15 2   
    29    15    16 1   
    30    15    23 1   
    31    16    17 1   
    32    17    18 1   
    33    17    22 2   
    34    18    19 2   
    35    18    20 2   
    36    18    21 1   
    37    21    38 1   
    38    21    39 1   
    39    22    23 1   
    40    23    24 1   
    41    24    40 1   
    42    24    41 1   
    43    24    42 1   
@<TRIPOS>SUBSTRUCTURE
     1 7L3         1 TEMP              0 ****  ****    0 ROOT
