@<TRIPOS>MOLECULE
7L5
   60    62     1     0     0
SMALL
abcg2


@<TRIPOS>ATOM
      1 CAQ         -7.8520    -1.5330    -0.4780 c6         1 7L5      -0.111400
      2 CAM         -8.9700    -1.4590     0.5600 c6         1 7L5       0.147800
      3 NAT         -9.2420    -0.1140     1.0420 n7         1 7L5      -0.842400
      4 CAN         -8.0310     0.5310     1.5250 c6         1 7L5       0.147800
      5 CAR         -6.8790     0.5270     0.5220 c6         1 7L5      -0.111400
      6 CBC         -6.5670    -0.8910     0.0430 c6         1 7L5      -0.059700
      7 CAP         -5.4610    -0.9350    -1.0090 c3         1 7L5      -0.071400
      8 CAL         -4.1070    -0.4550    -0.5020 c3         1 7L5      -0.073400
      9 CAO         -2.9940    -0.6470    -1.5380 c3         1 7L5      -0.043100
     10 CAV         -1.6780    -0.1680    -1.0060 ca         1 7L5      -0.001300
     11 CAK         -0.9740    -0.9380    -0.0900 ca         1 7L5      -0.134500
     12 CAY          0.2010    -0.4810     0.4810 ca         1 7L5       0.218000
     13 CLI          0.9950    -1.5950     1.5290 cl         1 7L5      -0.151000
     14 CAJ         -1.1450     1.0530    -1.3910 ca         1 7L5      -0.134500
     15 CAX          0.0350     1.5110    -0.8360 ca         1 7L5       0.218000
     16 CLH          0.6770     2.9640    -1.5100 cl         1 7L5      -0.151000
     17 CBA          0.7100     0.7840     0.1550 ca         1 7L5      -0.262500
     18 SBF          2.1330     1.4950     0.9650 sy         1 7L5       1.204600
     19 OAD          1.9900     2.9330     1.0480 o          1 7L5      -0.527000
     20 OAE          2.3740     0.7630     2.1850 o          1 7L5      -0.527000
     21 NBD          3.3560     1.1670    -0.1270 nh         1 7L5      -0.802300
     22 CBB          4.1280     2.1910    -0.7160 c3         1 7L5       0.467500
     23 FAG          5.4090     2.1410    -0.2640 f          1 7L5      -0.119000
     24 FAF          4.2150     1.9850    -2.0530 f          1 7L5      -0.119000
     25 CAZ          3.6840    -0.1890    -0.3180 cc         1 7L5       0.080000
     26 CAW          4.4520    -0.9760     0.5260 cd         1 7L5      -0.076300
     27 CAB          5.1760    -0.6450     1.7770 c3         1 7L5      -0.032800
     28 NBE          4.4300    -2.1970    -0.0230 na         1 7L5       0.139800
     29 CAC          4.9950    -3.4120     0.5110 c3         1 7L5       0.071900
     30 NAS          3.7070    -2.2540    -1.1490 nd         1 7L5      -0.528800
     31 CAU          3.2450    -1.0400    -1.3540 cc         1 7L5       0.296300
     32 CAA          2.4460    -0.7120    -2.5660 c3         1 7L5      -0.119400
     33 HAQ1        -7.6720    -2.5760    -0.7550 hc         1 7L5       0.042700
     34 HAQ2        -8.1680    -1.0140    -1.3910 hc         1 7L5       0.042700
     35 HAM1        -9.8940    -1.8810     0.1570 h1         1 7L5       0.052450
     36 HAM2        -8.6960    -2.0770     1.4230 h1         1 7L5       0.052450
     37 HBC         -6.2270    -1.4750     0.9110 hc         1 7L5       0.049700
     38 HAT         -9.6180     0.4360     0.2770 hn         1 7L5       0.401000
     39 HAN1        -8.2740     1.5550     1.8190 h1         1 7L5       0.052450
     40 HAN2        -7.7130     0.0120     2.4370 h1         1 7L5       0.052450
     41 HAR1        -7.1490     1.1470    -0.3430 hc         1 7L5       0.042700
     42 HAR2        -6.0000     0.9920     0.9780 hc         1 7L5       0.042700
     43 HAP1        -5.3610    -1.9650    -1.3680 hc         1 7L5       0.039700
     44 HAP2        -5.7630    -0.3380    -1.8770 hc         1 7L5       0.039700
     45 HAL1        -4.1560     0.6010    -0.2250 hc         1 7L5       0.046700
     46 HAL2        -3.8440    -1.0000     0.4100 hc         1 7L5       0.046700
     47 HAO1        -2.9200    -1.7050    -1.8000 hc         1 7L5       0.056200
     48 HAO2        -3.2460    -0.1080    -2.4540 hc         1 7L5       0.056200
     49 HAK         -1.3430    -1.9180     0.1840 ha         1 7L5       0.136500
     50 HAJ         -1.6440     1.6520    -2.1430 ha         1 7L5       0.136500
     51 HBB          3.7190     3.1780    -0.5240 h3         1 7L5       0.107700
     52 HAB1         4.7400    -1.1530     2.6360 hc         1 7L5       0.060367
     53 HAB2         6.2260    -0.9320     1.7130 hc         1 7L5       0.060367
     54 HAB3         5.1380     0.4230     1.9680 hc         1 7L5       0.060367
     55 HAC1         4.2390    -3.9910     1.0390 h1         1 7L5       0.058367
     56 HAC2         5.3980    -4.0080    -0.3030 h1         1 7L5       0.058367
     57 HAC3         5.8000    -3.1750     1.2000 h1         1 7L5       0.058367
     58 HAA1         3.0820    -0.3220    -3.3610 hc         1 7L5       0.050700
     59 HAA2         1.9460    -1.6010    -2.9460 hc         1 7L5       0.050700
     60 HAA3         1.6880     0.0410    -2.3640 hc         1 7L5       0.050700
@<TRIPOS>BOND
     1     1     2 1   
     2     1     6 1   
     3     1    33 1   
     4     1    34 1   
     5     2     3 1   
     6     2    35 1   
     7     2    36 1   
     8     3     4 1   
     9     3    38 1   
    10     4     5 1   
    11     4    39 1   
    12     4    40 1   
    13     5     6 1   
    14     5    41 1   
    15     5    42 1   
    16     6     7 1   
    17     6    37 1   
    18     7     8 1   
    19     7    43 1   
    20     7    44 1   
    21     8     9 1   
    22     8    45 1   
    23     8    46 1   
    24     9    10 1   
    25     9    47 1   
    26     9    48 1   
    27    10    11 ar  
    28    10    14 ar  
    29    11    12 ar  
    30    11    49 1   
    31    12    13 1   
    32    12    17 ar  
    33    14    15 ar  
    34    14    50 1   
    35    15    16 1   
    36    15    17 ar  
    37    17    18 1   
    38    18    19 2   
    39    18    20 2   
    40    18    21 1   
    41    21    22 1   
    42    21    25 1   
    43    22    23 1   
    44    22    24 1   
    45    22    51 1   
    46    25    26 2   
    47    25    31 1   
    48    26    27 1   
    49    26    28 1   
    50    27    52 1   
    51    27    53 1   
    52    27    54 1   
    53    28    29 1   
    54    28    30 1   
    55    29    55 1   
    56    29    56 1   
    57    29    57 1   
    58    30    31 2   
    59    31    32 1   
    60    32    58 1   
    61    32    59 1   
    62    32    60 1   
@<TRIPOS>SUBSTRUCTURE
     1 7L5         1 TEMP              0 ****  ****    0 ROOT
