@<TRIPOS>MOLECULE
7L5
   60    62     1     0     0
SMALL
No Charge or Current Charge


@<TRIPOS>ATOM
      1 CAQ         -7.8620    -1.7140    -0.4720 c6         1 7L5      -0.111400
      2 CAM         -9.1360    -1.4390     0.3630 c6         1 7L5       0.147800
      3 NAT         -9.4240     0.0130     0.4250 n7         1 7L5      -0.842400
      4 CAN         -8.3010     0.7880     1.0060 c6         1 7L5       0.147800
      5 CAR         -6.9990     0.5770     0.1950 c6         1 7L5      -0.111400
      6 CBC         -6.6390    -0.9330     0.0810 c6         1 7L5      -0.059700
      7 CAP         -5.3700    -1.1930    -0.7880 c3         1 7L5      -0.071400
      8 CAL         -4.0570    -0.5800    -0.2450 c3         1 7L5      -0.073400
      9 CAO         -2.8200    -0.9530    -1.0890 c3         1 7L5      -0.043100
     10 CAV         -1.5460    -0.3300    -0.5370 ca         1 7L5      -0.001300
     11 CAK         -0.7650    -1.0170     0.4000 ca         1 7L5      -0.134500
     12 CAY          0.4130    -0.4540     0.9180 ca         1 7L5       0.218000
     13 ClI          1.3000    -1.4960     2.0340 cl         1 7L5      -0.151000
     14 CAJ         -1.1250     0.9320    -0.9700 ca         1 7L5      -0.134500
     15 CAX          0.0500     1.5150    -0.4690 ca         1 7L5       0.218000
     16 ClH          0.4880     3.0640    -1.1970 cl         1 7L5      -0.151000
     17 CBA          0.8300     0.8430     0.5100 ca         1 7L5      -0.262500
     18 SBF          2.3390     1.6150     1.1560 sy         1 7L5       1.204600
     19 OAD          2.1980     3.0750     1.1570 o          1 7L5      -0.527000
     20 OAE          2.8150     0.9300     2.3590 o          1 7L5      -0.527000
     21 NBD          3.4130     1.2210    -0.1040 nh         1 7L5      -0.802300
     22 CBB          4.2530     2.2950    -0.6390 c3         1 7L5       0.467500
     23 FAG          5.3650     2.4330     0.1170 f          1 7L5      -0.119000
     24 FAF          4.6680     1.9840    -1.8890 f          1 7L5      -0.119000
     25 CAZ          3.6290    -0.1270    -0.3750 cc         1 7L5       0.080000
     26 CAW          4.4380    -0.9910     0.3040 cd         1 7L5      -0.076300
     27 CAB          5.3250    -0.7770     1.5070 c3         1 7L5      -0.032800
     28 NBE          4.2920    -2.2150    -0.3670 na         1 7L5       0.139800
     29 CAC          4.9420    -3.4860    -0.0130 c3         1 7L5       0.071900
     30 NAS          3.4420    -2.1390    -1.4620 nd         1 7L5      -0.528800
     31 CAU          3.0670    -0.8750    -1.4440 cc         1 7L5       0.296300
     32 CAA          2.1300    -0.3070    -2.4760 c3         1 7L5      -0.119400
     33 HAQ1        -7.6530    -2.7930    -0.4700 hc         1 7L5       0.042700
     34 HAQ2        -8.0440    -1.4360    -1.5200 hc         1 7L5       0.042700
     35 HAM1        -9.9920    -1.9680    -0.0840 h1         1 7L5       0.052450
     36 HAM2        -9.0000    -1.8340     1.3820 h1         1 7L5       0.052450
     37 HBC         -6.4140    -1.3150     1.0870 hc         1 7L5       0.049700
     38 HAT         -9.5790     0.3480    -0.5330 hn         1 7L5       0.401000
     39 HAN1        -8.5570     1.8580     1.0200 h1         1 7L5       0.052450
     40 HAN2        -8.1380     0.4750     2.0490 h1         1 7L5       0.052450
     41 HAR1        -7.1150     1.0120    -0.8070 hc         1 7L5       0.042700
     42 HAR2        -6.1870     1.1300     0.6850 hc         1 7L5       0.042700
     43 HAP1        -5.2220    -2.2760    -0.8840 hc         1 7L5       0.039700
     44 HAP2        -5.5370    -0.8190    -1.8060 hc         1 7L5       0.039700
     45 HAL1        -4.1440     0.5130    -0.2190 hc         1 7L5       0.046700
     46 HAL2        -3.9010    -0.9150     0.7880 hc         1 7L5       0.046700
     47 HAO1        -2.7210    -2.0450    -1.1230 hc         1 7L5       0.056200
     48 HAO2        -2.9790    -0.6290    -2.1250 hc         1 7L5       0.056200
     49 HAK         -1.0690    -2.0070     0.7290 ha         1 7L5       0.136500
     50 HAJ         -1.7070     1.4670    -1.7160 ha         1 7L5       0.136500
     51 HBB          3.7070     3.2460    -0.6700 h3         1 7L5       0.107700
     52 HAB1         4.8910    -1.2440     2.3990 hc         1 7L5       0.060367
     53 HAB2         6.3200    -1.2090     1.3490 hc         1 7L5       0.060367
     54 HAB3         5.4610     0.2880     1.7220 hc         1 7L5       0.060367
     55 HAC1         4.7400    -3.7190     1.0390 h1         1 7L5       0.058367
     56 HAC2         4.5530    -4.2950    -0.6430 h1         1 7L5       0.058367
     57 HAC3         6.0240    -3.3970    -0.1660 h1         1 7L5       0.058367
     58 HAA1         2.3960    -0.6620    -3.4780 hc         1 7L5       0.050700
     59 HAA2         1.0990    -0.6170    -2.2710 hc         1 7L5       0.050700
     60 HAA3         2.1620     0.7870    -2.4940 hc         1 7L5       0.050700
@<TRIPOS>BOND
     1     1     2 1   
     2     1     6 1   
     3     1    33 1   
     4     1    34 1   
     5     2     3 1   
     6     2    35 1   
     7     2    36 1   
     8     3     4 1   
     9     3    38 1   
    10     4     5 1   
    11     4    39 1   
    12     4    40 1   
    13     5     6 1   
    14     5    41 1   
    15     5    42 1   
    16     6     7 1   
    17     6    37 1   
    18     7     8 1   
    19     7    43 1   
    20     7    44 1   
    21     8     9 1   
    22     8    45 1   
    23     8    46 1   
    24     9    10 1   
    25     9    47 1   
    26     9    48 1   
    27    10    11 ar  
    28    10    14 ar  
    29    11    12 ar  
    30    11    49 1   
    31    12    13 1   
    32    12    17 ar  
    33    14    15 ar  
    34    14    50 1   
    35    15    16 1   
    36    15    17 ar  
    37    17    18 1   
    38    18    19 2   
    39    18    20 2   
    40    18    21 1   
    41    21    22 1   
    42    21    25 1   
    43    22    23 1   
    44    22    24 1   
    45    22    51 1   
    46    25    26 2   
    47    25    31 1   
    48    26    27 1   
    49    26    28 1   
    50    27    52 1   
    51    27    53 1   
    52    27    54 1   
    53    28    29 1   
    54    28    30 1   
    55    29    55 1   
    56    29    56 1   
    57    29    57 1   
    58    30    31 2   
    59    31    32 1   
    60    32    58 1   
    61    32    59 1   
    62    32    60 1   
@<TRIPOS>SUBSTRUCTURE
     1 7L5         1 TEMP              0 ****  ****    0 ROOT
