@<TRIPOS>MOLECULE
7L6
   57    60     1     0     0
SMALL
abcg2


@<TRIPOS>ATOM
      1 C4          -2.1090    -0.3480     0.0120 ca         1 7L6       0.118000
      2 C5          -1.2920     0.7900     0.0980 ca         1 7L6      -0.219000
      3 C6           0.1130     0.5220     0.2290 ca         1 7L6       0.440900
      4 C8           0.0120    -5.3100    -0.4810 c6         1 7L6       0.140600
      5 N1           0.5670    -0.7140     0.2610 nb         1 7L6      -0.342000
      6 C3           2.1380    -4.4170    -0.2300 c6         1 7L6       0.140600
      7 N3          -1.6200    -1.6080     0.0520 nb         1 7L6      -0.293000
      8 CAJ          1.6030    -3.2210     0.5350 c6         1 7L6       0.188800
      9 NAR          0.2220    -2.9800     0.1660 nh         1 7L6      -0.773300
     10 C2          -0.3140    -1.7250     0.1670 ca         1 7L6       0.433900
     11 CAE         -3.5060    -0.1690    -0.1180 ca         1 7L6      -0.205000
     12 CAW         -4.0580     1.0870    -0.1580 ca         1 7L6       0.166100
     13 OAT         -5.3640     1.3480    -0.2790 os         1 7L6      -0.318100
     14 CAB         -6.2630     0.2580    -0.3510 c3         1 7L6       0.143900
     15 CAX         -3.2220     2.2410    -0.0630 ca         1 7L6       0.087100
     16 OAU         -3.8710     3.4190    -0.1070 os         1 7L6      -0.319100
     17 CAC         -3.1060     4.5980     0.0270 c3         1 7L6       0.144900
     18 CAF         -1.8690     2.0790     0.0660 ca         1 7L6      -0.132000
     19 NAS          1.0010     1.5220     0.3410 nu         1 7L6      -0.923100
     20 CBB          2.4360     1.3270     0.3900 c6         1 7L6       0.237500
     21 CAL          3.1020     2.5440     1.0180 c6         1 7L6      -0.093400
     22 CAM          3.0390     1.0640    -0.9860 c6         1 7L6      -0.093400
     23 CAO          4.5530     0.9510    -0.8940 c6         1 7L6       0.167800
     24 NBC          5.1330     2.1450    -0.3080 n3         1 7L6      -0.717600
     25 CAD          6.5770     2.0820    -0.3060 c3         1 7L6       0.152100
     26 CAN          4.6140     2.3780     1.0260 c6         1 7L6       0.167800
     27 C1          -0.6230    -4.1520     0.2660 c6         1 7L6       0.188800
     28 O3           1.3310    -5.5590    -0.0500 os         1 7L6      -0.448000
     29 H2          -0.0040    -5.0980    -1.5600 h1         1 7L6       0.051450
     30 H3           2.2120    -4.1630    -1.2970 h1         1 7L6       0.051450
     31 H4           3.1390    -4.6620     0.1270 h1         1 7L6       0.051450
     32 H5           1.6860    -3.4040     1.6150 h1         1 7L6       0.062200
     33 H6           2.2050    -2.3460     0.3050 h1         1 7L6       0.062200
     34 H7          -4.1190    -1.0570    -0.1800 ha         1 7L6       0.137000
     35 H8          -6.0670    -0.3740    -1.2210 h1         1 7L6       0.044033
     36 H9          -6.2240    -0.3590     0.5500 h1         1 7L6       0.044033
     37 H10         -7.2580     0.6850    -0.4430 h1         1 7L6       0.044033
     38 H11         -2.3810     4.7100    -0.7850 h1         1 7L6       0.038367
     39 H12         -3.8050     5.4290    -0.0120 h1         1 7L6       0.038367
     40 H13         -2.5720     4.6300     0.9810 h1         1 7L6       0.038367
     41 H14         -1.2390     2.9560     0.1460 ha         1 7L6       0.108000
     42 H15          0.6830     2.4640     0.1840 hn         1 7L6       0.491000
     43 H16          2.6290     0.4580     1.0260 h1         1 7L6       0.077700
     44 H17          2.8370     3.4450     0.4540 hc         1 7L6       0.054450
     45 H18          2.7480     2.6860     2.0410 hc         1 7L6       0.054450
     46 H19          2.6280     0.1460    -1.4100 hc         1 7L6       0.054450
     47 H20          2.7770     1.8860    -1.6600 hc         1 7L6       0.054450
     48 H21          4.8210     0.0470    -0.3160 h1         1 7L6       0.033450
     49 H22          4.9700     0.8130    -1.8940 h1         1 7L6       0.033450
     50 H24          6.9740     1.2570     0.3070 h1         1 7L6       0.031033
     51 H25          6.9470     1.9480    -1.3230 h1         1 7L6       0.031033
     52 H26          6.9940     3.0130     0.0800 h1         1 7L6       0.031033
     53 H27          5.0770     3.2810     1.4300 h1         1 7L6       0.033450
     54 H28          4.8810     1.5530     1.7130 h1         1 7L6       0.033450
     55 H29         -1.5990    -3.9390    -0.1640 h1         1 7L6       0.062200
     56 H30         -0.7790    -4.4250     1.3180 h1         1 7L6       0.062200
     57 H1          -0.5660    -6.2200    -0.3090 h1         1 7L6       0.051450
@<TRIPOS>BOND
     1     1     2 ar  
     2     1     7 ar  
     3     1    11 ar  
     4     2     3 ar  
     5     2    18 ar  
     6     3     5 ar  
     7     3    19 1   
     8     4    27 1   
     9     4    28 1   
    10     4    29 1   
    11     4    57 1   
    12     5    10 ar  
    13     6     8 1   
    14     6    28 1   
    15     6    30 1   
    16     6    31 1   
    17     7    10 ar  
    18     8     9 1   
    19     8    32 1   
    20     8    33 1   
    21     9    10 1   
    22     9    27 1   
    23    11    12 ar  
    24    11    34 1   
    25    12    13 1   
    26    12    15 ar  
    27    13    14 1   
    28    14    35 1   
    29    14    36 1   
    30    14    37 1   
    31    15    16 1   
    32    15    18 ar  
    33    16    17 1   
    34    17    38 1   
    35    17    39 1   
    36    17    40 1   
    37    18    41 1   
    38    19    20 1   
    39    19    42 1   
    40    20    21 1   
    41    20    22 1   
    42    20    43 1   
    43    21    26 1   
    44    21    44 1   
    45    21    45 1   
    46    22    23 1   
    47    22    46 1   
    48    22    47 1   
    49    23    24 1   
    50    23    48 1   
    51    23    49 1   
    52    24    25 1   
    53    24    26 1   
    54    25    50 1   
    55    25    51 1   
    56    25    52 1   
    57    26    53 1   
    58    26    54 1   
    59    27    55 1   
    60    27    56 1   
@<TRIPOS>SUBSTRUCTURE
     1 7L6         1 TEMP              0 ****  ****    0 ROOT
