@<TRIPOS>MOLECULE
7L6
   57    60     1     0     0
SMALL
No Charge or Current Charge


@<TRIPOS>ATOM
      1 C4          -2.1330    -0.3640    -0.0390 ca         1 7L6       0.118000
      2 C5          -1.2810     0.7430     0.1670 ca         1 7L6      -0.219000
      3 C6           0.0930     0.4670     0.3540 ca         1 7L6       0.440900
      4 C8          -0.0780    -5.6090    -0.3380 c6         1 7L6       0.140600
      5 N1           0.5700    -0.7850     0.3400 nb         1 7L6      -0.342000
      6 C3           2.1400    -4.7660     0.0050 c6         1 7L6       0.140600
      7 N3          -1.6380    -1.6150    -0.0520 nb         1 7L6      -0.293000
      8 CAJ          1.6130    -3.4010     0.5390 c6         1 7L6       0.188800
      9 NAR          0.1960    -3.1020     0.1120 nh         1 7L6      -0.773300
     10 C2          -0.3140    -1.7750     0.1380 ca         1 7L6       0.433900
     11 CAE         -3.5080    -0.1530    -0.2310 ca         1 7L6      -0.205000
     12 CAW         -4.0490     1.1510    -0.2220 ca         1 7L6       0.166100
     13 OAT         -5.4030     1.3790    -0.4100 os         1 7L6      -0.318100
     14 CAB         -6.3450     0.3140    -0.6260 c3         1 7L6       0.143900
     15 CAX         -3.1990     2.2620    -0.0160 ca         1 7L6       0.087100
     16 OAU         -3.7570     3.5310    -0.0120 os         1 7L6      -0.319100
     17 CAC         -2.9760     4.7230     0.1880 c3         1 7L6       0.144900
     18 CAF         -1.8140     2.0550     0.1780 ca         1 7L6      -0.132000
     19 NAS          1.0270     1.4820     0.5640 nu         1 7L6      -0.923100
     20 CBB          2.4940     1.3370     0.4940 c6         1 7L6       0.237500
     21 CAL          3.1650     2.5570     1.1610 c6         1 7L6      -0.093400
     22 CAM          2.9570     1.2260    -0.9770 c6         1 7L6      -0.093400
     23 CAO          4.4990     1.1700    -1.0560 c6         1 7L6       0.167800
     24 NBC          5.1210     2.3480    -0.3920 n3         1 7L6      -0.717600
     25 CAD          6.5910     2.3700    -0.5500 c3         1 7L6       0.152100
     26 CAN          4.7030     2.4650     1.0310 c6         1 7L6       0.167800
     27 C1          -0.7310    -4.2910     0.1770 c6         1 7L6       0.188800
     28 O3           1.2060    -5.8310     0.2870 os         1 7L6      -0.448000
     29 H2           0.0570    -5.5560    -1.4280 h1         1 7L6       0.051450
     30 H3           2.2990    -4.7040    -1.0810 h1         1 7L6       0.051450
     31 H4           3.1060    -5.0000     0.4750 h1         1 7L6       0.051450
     32 H5           1.6760    -3.4060     1.6370 h1         1 7L6       0.062200
     33 H6           2.3050    -2.6260     0.1800 h1         1 7L6       0.062200
     34 H7          -4.1420    -1.0200    -0.3870 ha         1 7L6       0.137000
     35 H8          -6.0940    -0.2510    -1.5320 h1         1 7L6       0.044033
     36 H9          -6.3590    -0.3740     0.2280 h1         1 7L6       0.044033
     37 H10         -7.3560     0.7220    -0.7500 h1         1 7L6       0.044033
     38 H11         -2.2140     4.8260    -0.5950 h1         1 7L6       0.038367
     39 H12         -3.6220     5.6090     0.1520 h1         1 7L6       0.038367
     40 H13         -2.4790     4.7040     1.1660 h1         1 7L6       0.038367
     41 H14         -1.1580     2.9030     0.3360 ha         1 7L6       0.108000
     42 H15          0.6430     2.4220     0.5720 hn         1 7L6       0.491000
     43 H16          2.8190     0.4370     1.0390 h1         1 7L6       0.077700
     44 H17          2.8160     3.4880     0.6940 hc         1 7L6       0.054450
     45 H18          2.8880     2.6070     2.2220 hc         1 7L6       0.054450
     46 H19          2.5340     0.3270    -1.4450 hc         1 7L6       0.054450
     47 H20          2.5920     2.0860    -1.5560 hc         1 7L6       0.054450
     48 H21          4.8490     0.2390    -0.5840 h1         1 7L6       0.033450
     49 H22          4.7960     1.1280    -2.1140 h1         1 7L6       0.033450
     50 H24          7.0520     1.5030    -0.0560 h1         1 7L6       0.031033
     51 H25          6.8680     2.3490    -1.6120 h1         1 7L6       0.031033
     52 H26          7.0150     3.2820    -0.1090 h1         1 7L6       0.031033
     53 H27          5.1480     3.3620     1.4860 h1         1 7L6       0.033450
     54 H28          5.0620     1.5980     1.6060 h1         1 7L6       0.033450
     55 H29         -1.6330    -4.1230    -0.4290 h1         1 7L6       0.062200
     56 H30         -1.0640    -4.4470     1.2140 h1         1 7L6       0.062200
     57 H1          -0.7370    -6.4600    -0.1190 h1         1 7L6       0.051450
@<TRIPOS>BOND
     1     1     2 ar  
     2     1     7 ar  
     3     1    11 ar  
     4     2     3 ar  
     5     2    18 ar  
     6     3     5 ar  
     7     3    19 1   
     8     4    27 1   
     9     4    28 1   
    10     4    29 1   
    11     4    57 1   
    12     5    10 ar  
    13     6     8 1   
    14     6    28 1   
    15     6    30 1   
    16     6    31 1   
    17     7    10 ar  
    18     8     9 1   
    19     8    32 1   
    20     8    33 1   
    21     9    10 1   
    22     9    27 1   
    23    11    12 ar  
    24    11    34 1   
    25    12    13 1   
    26    12    15 ar  
    27    13    14 1   
    28    14    35 1   
    29    14    36 1   
    30    14    37 1   
    31    15    16 1   
    32    15    18 ar  
    33    16    17 1   
    34    17    38 1   
    35    17    39 1   
    36    17    40 1   
    37    18    41 1   
    38    19    20 1   
    39    19    42 1   
    40    20    21 1   
    41    20    22 1   
    42    20    43 1   
    43    21    26 1   
    44    21    44 1   
    45    21    45 1   
    46    22    23 1   
    47    22    46 1   
    48    22    47 1   
    49    23    24 1   
    50    23    48 1   
    51    23    49 1   
    52    24    25 1   
    53    24    26 1   
    54    25    50 1   
    55    25    51 1   
    56    25    52 1   
    57    26    53 1   
    58    26    54 1   
    59    27    55 1   
    60    27    56 1   
@<TRIPOS>SUBSTRUCTURE
     1 7L6         1 TEMP              0 ****  ****    0 ROOT
