@<TRIPOS>MOLECULE
7L7
   29    30     1     0     0
SMALL
No Charge or Current Charge


@<TRIPOS>ATOM
      1 C1          -1.4060     0.3860     0.0060 ce         1 7L7      -0.170900
      2 C2          -2.8910     0.4860     0.2520 c          1 7L7       0.623300
      3 C3          -0.7930     1.5530    -0.5550 cg         1 7L7       0.315700
      4 N4          -0.3050     2.4870    -1.0550 n1         1 7L7      -0.462000
      5 O5          -3.5850    -0.4020     0.7260 o          1 7L7      -0.504000
      6 O6          -3.4090     1.7120    -0.0980 os         1 7L7      -0.419100
      7 C7          -4.8170     1.9420     0.0940 c3         1 7L7       0.153900
      8 C8          -0.6700    -0.7420     0.2500 c2         1 7L7       0.247200
      9 N9           0.7320    -0.9330     0.0700 n          1 7L7      -0.145600
     10 C10          1.1730    -2.2700    -0.0750 c          1 7L7       0.581000
     11 C11         -0.0370    -3.1950    -0.0970 c5         1 7L7      -0.126400
     12 S12         -1.3350    -2.2960     0.8410 ss         1 7L7      -0.083600
     13 C13          1.7070     0.1190     0.2320 ca         1 7L7      -0.122000
     14 C14          1.7470     0.8510     1.4360 ca         1 7L7      -0.059000
     15 C15          2.6920     1.8780     1.6090 ca         1 7L7      -0.115000
     16 C16          3.6020     2.1830     0.5820 ca         1 7L7      -0.059000
     17 C17          3.5640     1.4600    -0.6220 ca         1 7L7      -0.141000
     18 C18          2.6230     0.4330    -0.7970 ca         1 7L7       0.200000
     19 F19          2.5810    -0.2290    -1.9750 f          1 7L7      -0.165000
     20 O20          2.3460    -2.6180    -0.1280 o          1 7L7      -0.456000
     21 H1          -5.0900     1.8390     1.1530 h1         1 7L7       0.051033
     22 H2          -5.0860     2.9560    -0.2280 h1         1 7L7       0.051033
     23 H3          -5.4150     1.2310    -0.4910 h1         1 7L7       0.051033
     24 H4          -0.3460    -3.3420    -1.1390 h1         1 7L7       0.117700
     25 H5           0.2080    -4.1560     0.3690 h1         1 7L7       0.117700
     26 H6           1.0510     0.6230     2.2410 ha         1 7L7       0.128000
     27 H7           2.7190     2.4380     2.5410 ha         1 7L7       0.126000
     28 H8           4.3310     2.9790     0.7180 ha         1 7L7       0.123000
     29 H9           4.2600     1.6970    -1.4230 ha         1 7L7       0.139000
@<TRIPOS>BOND
     1     1     2 1   
     2     1     3 1   
     3     1     8 2   
     4     2     5 2   
     5     2     6 1   
     6     3     4 3   
     7     6     7 1   
     8     7    21 1   
     9     7    22 1   
    10     7    23 1   
    11     8     9 1   
    12     8    12 1   
    13     9    10 1   
    14     9    13 1   
    15    10    11 1   
    16    10    20 2   
    17    11    12 1   
    18    11    24 1   
    19    11    25 1   
    20    13    14 ar  
    21    13    18 ar  
    22    14    15 ar  
    23    14    26 1   
    24    15    16 ar  
    25    15    27 1   
    26    16    17 ar  
    27    16    28 1   
    28    17    18 ar  
    29    17    29 1   
    30    18    19 1   
@<TRIPOS>SUBSTRUCTURE
     1 7L7         1 TEMP              0 ****  ****    0 ROOT
