@<TRIPOS>MOLECULE
7L7
   29    30     1     0     0
SMALL
abcg2


@<TRIPOS>ATOM
      1 C1          -1.3210     0.4680     0.0860 ce         1 7L7      -0.170900
      2 C2          -2.7850     0.5010     0.0410 c          1 7L7       0.623300
      3 C3          -0.6580     1.7200     0.0630 cg         1 7L7       0.315700
      4 N4          -0.2080     2.7820     0.0300 n1         1 7L7      -0.462000
      5 O5          -3.4750    -0.4940     0.0450 o          1 7L7      -0.504000
      6 O6          -3.2550     1.7320    -0.0050 os         1 7L7      -0.419100
      7 C7          -4.6730     1.9000    -0.0570 c3         1 7L7       0.153900
      8 C8          -0.6820    -0.7470     0.1240 c2         1 7L7       0.247200
      9 N9           0.6700    -0.9340     0.1840 n          1 7L7      -0.145600
     10 C10          1.1350    -2.2470     0.1710 c          1 7L7       0.581000
     11 C11         -0.0070    -3.2130     0.1310 c5         1 7L7      -0.126400
     12 S12         -1.5400    -2.2590     0.0970 ss         1 7L7      -0.083600
     13 C13          1.6180     0.1200     0.2620 ca         1 7L7      -0.122000
     14 C14          1.9890     0.6490     1.4880 ca         1 7L7      -0.059000
     15 C15          2.9160     1.6780     1.5350 ca         1 7L7      -0.115000
     16 C16          3.4750     2.1590     0.3580 ca         1 7L7      -0.059000
     17 C17          3.1250     1.6180    -0.8710 ca         1 7L7      -0.141000
     18 C18          2.1990     0.5970    -0.9000 ca         1 7L7       0.200000
     19 F19          1.8270     0.0600    -2.0640 f          1 7L7      -0.165000
     20 O20          2.3020    -2.5220     0.1960 o          1 7L7      -0.456000
     21 H1          -5.1520     1.4990     0.8360 h1         1 7L7       0.051033
     22 H2          -4.8410     2.9710    -0.1060 h1         1 7L7       0.051033
     23 H3          -5.0960     1.4250    -0.9410 h1         1 7L7       0.051033
     24 H4           0.0660    -3.8420    -0.7570 h1         1 7L7       0.117700
     25 H5           0.0210    -3.8560     1.0110 h1         1 7L7       0.117700
     26 H6           1.5410     0.2610     2.3930 ha         1 7L7       0.128000
     27 H7           3.2000     2.1020     2.4870 ha         1 7L7       0.126000
     28 H8           4.1990     2.9620     0.3930 ha         1 7L7       0.123000
     29 H9           3.5610     1.9820    -1.7920 ha         1 7L7       0.139000
@<TRIPOS>BOND
     1     1     2 1   
     2     1     3 1   
     3     1     8 2   
     4     2     5 2   
     5     2     6 1   
     6     3     4 3   
     7     6     7 1   
     8     7    21 1   
     9     7    22 1   
    10     7    23 1   
    11     8     9 1   
    12     8    12 1   
    13     9    10 1   
    14     9    13 1   
    15    10    11 1   
    16    10    20 2   
    17    11    12 1   
    18    11    24 1   
    19    11    25 1   
    20    13    14 ar  
    21    13    18 ar  
    22    14    15 ar  
    23    14    26 1   
    24    15    16 ar  
    25    15    27 1   
    26    16    17 ar  
    27    16    28 1   
    28    17    18 ar  
    29    17    29 1   
    30    18    19 1   
@<TRIPOS>SUBSTRUCTURE
     1 7L7         1 TEMP              0 ****  ****    0 ROOT
