@<TRIPOS>MOLECULE
7L8
   69    75     1     0     0
SMALL
No Charge or Current Charge


@<TRIPOS>ATOM
      1 N1           0.2290     2.4480   -24.8830 nb         1 7L8      -0.667000
      2 C4           2.0530     3.7820   -24.0290 ca         1 7L8      -0.266000
      3 C5           1.5260     2.5820   -24.5350 ca         1 7L8       0.385900
      4 C7           3.0300     6.1220   -23.1230 ca         1 7L8       0.423300
      5 C10         -2.0210     3.2920   -25.1540 cp         1 7L8      -0.097500
      6 C15          6.8440     2.6910   -23.2290 c5         1 7L8       0.132500
      7 C17          5.4380     1.4960   -21.8560 c5         1 7L8       0.132500
      8 C20          6.8090     3.5340   -21.9210 c5         1 7L8      -0.070400
      9 C21          4.8750     7.4910   -22.2370 c3         1 7L8       0.187600
     10 C22          5.1220     8.9590   -21.7650 c5         1 7L8       0.179500
     11 C24          5.0580    11.2760   -21.9330 c5         1 7L8       0.173800
     12 C26          4.2420     9.4020   -20.5630 c5         1 7L8      -0.077400
     13 C11         -0.1350     4.7640   -24.2570 ca         1 7L8       0.134000
     14 C14          5.7090     3.0470   -24.2590 c6         1 7L8       0.183300
     15 C18          4.1750     1.7100   -22.7660 c6         1 7L8       0.183300
     16 C19          5.8170     2.7450   -21.0020 c5         1 7L8      -0.070400
     17 C2          -0.6020     3.5060   -24.7270 cp         1 7L8       0.371500
     18 C25          4.3580    10.9590   -20.5810 c5         1 7L8      -0.081400
     19 C29         -2.2860     2.9380   -26.5010 ca         1 7L8      -0.092000
     20 C3           1.2180     4.9090   -23.8950 ca         1 7L8       0.079000
     21 C30         -3.5960     2.7570   -26.9650 ca         1 7L8       0.140100
     22 C31         -4.6770     2.9220   -26.0920 ca         1 7L8      -0.203000
     23 C32         -4.4510     3.2550   -24.7450 ca         1 7L8       0.002000
     24 C33         -3.1290     3.4350   -24.2640 ca         1 7L8      -0.040000
     25 C34         -5.5500     3.3990   -23.8780 ca         1 7L8      -0.111000
     26 C35         -5.3490     3.7130   -22.5250 ca         1 7L8      -0.097000
     27 C36         -4.0460     3.8750   -22.0340 ca         1 7L8      -0.117000
     28 C37         -2.9440     3.7350   -22.8930 ca         1 7L8      -0.080000
     29 C9           3.4020     3.9200   -23.6700 ca         1 7L8       0.469900
     30 F28         -0.9760     5.8260   -24.1700 f          1 7L8      -0.139000
     31 N13          4.3170     2.8520   -23.7270 nh         1 7L8      -0.774300
     32 N16          6.6480     1.3160   -22.7000 n7         1 7L8      -0.835400
     33 N23          4.8110    10.0520   -22.7260 n3         1 7L8      -0.728600
     34 N6           1.7210     6.0750   -23.4390 nb         1 7L8      -0.216000
     35 N8           3.8870     5.0870   -23.2220 nb         1 7L8      -0.374000
     36 O12          3.5000     7.3300   -22.6590 os         1 7L8      -0.412300
     37 O38         -3.8140     2.4270   -28.2700 oh         1 7L8      -0.531100
     38 H1           2.1460     1.6990   -24.6810 h4         1 7L8       0.021100
     39 H2           7.8110     2.7960   -23.7440 h1         1 7L8       0.081200
     40 H3           5.2500     0.6180   -21.2200 h1         1 7L8       0.081200
     41 H4           7.8040     3.5820   -21.4630 hc         1 7L8       0.054950
     42 H5           6.4910     4.5670   -22.0990 hc         1 7L8       0.054950
     43 H6           5.1050     6.8110   -21.4060 h1         1 7L8       0.046200
     44 H7           5.5620     7.2620   -23.0620 h1         1 7L8       0.046200
     45 H8           6.1830     9.0140   -21.4770 h1         1 7L8       0.034700
     46 H9           6.1350    11.4370   -21.7830 h1         1 7L8       0.034700
     47 H10          4.6450    12.1750   -22.4120 h1         1 7L8       0.034700
     48 H11          3.1980     9.0940   -20.6940 hc         1 7L8       0.047700
     49 H12          4.5890     8.9680   -19.6180 hc         1 7L8       0.047700
     50 H13          5.8410     2.4230   -25.1560 h1         1 7L8       0.065700
     51 H14          5.8570     4.0840   -24.5970 h1         1 7L8       0.065700
     52 H15          3.3030     1.8730   -22.1140 h1         1 7L8       0.065700
     53 H16          3.9730     0.7830   -23.3230 h1         1 7L8       0.065700
     54 H17          4.9370     3.3400   -20.7300 hc         1 7L8       0.054950
     55 H18          6.3040     2.4500   -20.0670 hc         1 7L8       0.054950
     56 H19          4.9410    11.3420   -19.7360 hc         1 7L8       0.058700
     57 H20          3.3680    11.4250   -20.5270 hc         1 7L8       0.058700
     58 H21          5.2570     9.0920   -24.5770 h1         1 7L8       0.028033
     59 H22          5.2500    10.8660   -24.6420 h1         1 7L8       0.028033
     60 H23          6.6090    10.0120   -23.8720 h1         1 7L8       0.028033
     61 H24         -1.4590     2.8150   -27.1960 ha         1 7L8       0.138000
     62 H25         -5.6940     2.7840   -26.4520 ha         1 7L8       0.114000
     63 H26         -6.5630     3.2650   -24.2510 ha         1 7L8       0.111000
     64 H27         -6.2020     3.8220   -21.8580 ha         1 7L8       0.111000
     65 H28         -3.8880     4.1080   -20.9830 ha         1 7L8       0.113000
     66 H29         -1.9490     3.8520   -22.4740 ha         1 7L8       0.115000
     67 H30          6.4430     0.6710   -23.4720 hn         1 7L8       0.411000
     68 H33         -4.7820     2.3440   -28.4100 ho         1 7L8       0.465000
     69 C27          5.5210    10.0020   -24.0220 c3         1 7L8       0.164100
@<TRIPOS>BOND
     1     1     3 ar  
     2     1    17 ar  
     3     2     3 ar  
     4     2    20 ar  
     5     2    29 ar  
     6     3    38 1   
     7     4    34 ar  
     8     4    35 ar  
     9     4    36 1   
    10     5    17 1   
    11     5    19 ar  
    12     5    24 ar  
    13     6     8 1   
    14     6    14 1   
    15     6    32 1   
    16     6    39 1   
    17     7    15 1   
    18     7    16 1   
    19     7    32 1   
    20     7    40 1   
    21     8    16 1   
    22     8    41 1   
    23     8    42 1   
    24     9    10 1   
    25     9    36 1   
    26     9    43 1   
    27     9    44 1   
    28    10    12 1   
    29    10    33 1   
    30    10    45 1   
    31    11    18 1   
    32    11    33 1   
    33    11    46 1   
    34    11    47 1   
    35    12    18 1   
    36    12    48 1   
    37    12    49 1   
    38    13    17 ar  
    39    13    20 ar  
    40    13    30 1   
    41    14    31 1   
    42    14    50 1   
    43    14    51 1   
    44    15    31 1   
    45    15    52 1   
    46    15    53 1   
    47    16    54 1   
    48    16    55 1   
    49    18    56 1   
    50    18    57 1   
    51    19    21 ar  
    52    19    61 1   
    53    20    34 ar  
    54    21    22 ar  
    55    21    37 1   
    56    22    23 ar  
    57    22    62 1   
    58    23    24 ar  
    59    23    25 ar  
    60    24    28 ar  
    61    25    26 ar  
    62    25    63 1   
    63    26    27 ar  
    64    26    64 1   
    65    27    28 ar  
    66    27    65 1   
    67    28    66 1   
    68    29    31 1   
    69    29    35 ar  
    70    32    67 1   
    71    33    69 1   
    72    37    68 1   
    73    58    69 1   
    74    59    69 1   
    75    60    69 1   
@<TRIPOS>SUBSTRUCTURE
     1 7L8         1 TEMP              0 ****  ****    0 ROOT
