@<TRIPOS>MOLECULE
7L8
   69    75     1     0     0
SMALL
abcg2


@<TRIPOS>ATOM
      1 N1           0.4700     2.7790   -25.0350 nb         1 7L8      -0.667000
      2 C4           2.2900     3.8900   -23.9440 ca         1 7L8      -0.266000
      3 C5           1.7390     2.8640   -24.7300 ca         1 7L8       0.385900
      4 C7           3.2010     6.1960   -22.9530 ca         1 7L8       0.423300
      5 C10         -1.8040     3.5890   -24.9530 cp         1 7L8      -0.097500
      6 C15          6.6850     2.5870   -22.4530 c5         1 7L8       0.132500
      7 C17          5.0630     1.0110   -22.3880 c5         1 7L8       0.132500
      8 C20          5.9740     2.8600   -21.1210 c5         1 7L8      -0.070400
      9 C21          5.0480     7.6170   -22.5020 c3         1 7L8       0.187600
     10 C22          5.2690     9.0810   -22.1790 c5         1 7L8       0.179500
     11 C24          4.2170    11.1440   -22.6030 c5         1 7L8       0.173800
     12 C26          4.5960     9.5630   -20.8770 c5         1 7L8      -0.077400
     13 C11          0.0800     4.7950   -23.8620 ca         1 7L8       0.134000
     14 C14          6.0140     3.3420   -23.5990 c6         1 7L8       0.183300
     15 C18          4.2480     1.6430   -23.5240 c6         1 7L8       0.183300
     16 C19          4.8670     1.7850   -21.0770 c5         1 7L8      -0.070400
     17 C2          -0.3800     3.7160   -24.5660 cp         1 7L8       0.371500
     18 C25          3.5800    10.6130   -21.3310 c5         1 7L8      -0.081400
     19 C29         -2.0920     3.5460   -26.2910 ca         1 7L8      -0.092000
     20 C3           1.4480     4.9600   -23.5680 ca         1 7L8       0.079000
     21 C30         -3.4250     3.4650   -26.7480 ca         1 7L8       0.140100
     22 C31         -4.4540     3.4240   -25.8430 ca         1 7L8      -0.203000
     23 C32         -4.1870     3.4370   -24.4560 ca         1 7L8       0.002000
     24 C33         -2.8480     3.5080   -23.9880 ca         1 7L8      -0.040000
     25 C34         -5.2410     3.3700   -23.5140 ca         1 7L8      -0.111000
     26 C35         -4.9810     3.3520   -22.1720 ca         1 7L8      -0.097000
     27 C36         -3.6520     3.3890   -21.7060 ca         1 7L8      -0.117000
     28 C37         -2.6130     3.4650   -22.5930 ca         1 7L8      -0.080000
     29 C9           3.6800     4.0500   -23.5830 ca         1 7L8       0.469900
     30 F28         -0.7660     5.7590   -23.4890 f          1 7L8      -0.139000
     31 N13          4.5800     3.0600   -23.6430 nh         1 7L8      -0.774300
     32 N16          6.4980     1.1470   -22.5960 n7         1 7L8      -0.835400
     33 N23          4.7370     9.9450   -23.2270 n3         1 7L8      -0.728600
     34 N6           1.8900     6.1060   -23.0290 nb         1 7L8      -0.216000
     35 N8           4.0950     5.2450   -23.1890 nb         1 7L8      -0.374000
     36 O12          3.6430     7.3800   -22.5680 os         1 7L8      -0.412300
     37 O38         -3.5950     3.4430   -28.0820 oh         1 7L8      -0.531100
     38 H1           2.3750     2.1020   -25.1640 h4         1 7L8       0.021100
     39 H2           7.7450     2.8490   -22.4340 h1         1 7L8       0.081200
     40 H3           4.7710    -0.0390   -22.3100 h1         1 7L8       0.081200
     41 H4           6.6710     2.7370   -20.2910 hc         1 7L8       0.054950
     42 H5           5.5830     3.8770   -21.0680 hc         1 7L8       0.054950
     43 H6           5.5040     6.9890   -21.7320 h1         1 7L8       0.046200
     44 H7           5.5180     7.3610   -23.4550 h1         1 7L8       0.046200
     45 H8           6.3610     9.1980   -22.0840 h1         1 7L8       0.034700
     46 H9           5.0120    11.8690   -22.3580 h1         1 7L8       0.034700
     47 H10          3.5100    11.6500   -23.2660 h1         1 7L8       0.034700
     48 H11          4.1420     8.7520   -20.3070 hc         1 7L8       0.047700
     49 H12          5.3440    10.0220   -20.2290 hc         1 7L8       0.047700
     50 H13          6.4520     3.0210   -24.5520 h1         1 7L8       0.065700
     51 H14          6.1640     4.4130   -23.5070 h1         1 7L8       0.065700
     52 H15          3.1930     1.5240   -23.2910 h1         1 7L8       0.065700
     53 H16          4.4500     1.1240   -24.4670 h1         1 7L8       0.065700
     54 H17          3.8650     2.2080   -20.9960 hc         1 7L8       0.054950
     55 H18          5.0030     1.1170   -20.2270 hc         1 7L8       0.054950
     56 H19          3.4100    11.3910   -20.5860 hc         1 7L8       0.058700
     57 H20          2.6180    10.1500   -21.5580 hc         1 7L8       0.058700
     58 H21          5.9440     9.2460   -24.7870 h1         1 7L8       0.028033
     59 H22          5.1410    10.7770   -25.0950 h1         1 7L8       0.028033
     60 H23          6.5510    10.7240   -24.0230 h1         1 7L8       0.028033
     61 H24         -1.2920     3.5960   -27.0200 ha         1 7L8       0.138000
     62 H25         -5.4840     3.3740   -26.1810 ha         1 7L8       0.114000
     63 H26         -6.2610     3.3260   -23.8760 ha         1 7L8       0.111000
     64 H27         -5.7970     3.2990   -21.4620 ha         1 7L8       0.111000
     65 H28         -3.4540     3.3520   -20.6430 ha         1 7L8       0.113000
     66 H29         -1.5980     3.4650   -22.2160 ha         1 7L8       0.115000
     67 H30          6.7790     0.8200   -23.5150 hn         1 7L8       0.411000
     68 H33         -4.5330     3.4000   -28.3030 ho         1 7L8       0.465000
     69 C27          5.6380    10.1860   -24.3250 c3         1 7L8       0.164100
@<TRIPOS>BOND
     1     1     3 ar  
     2     1    17 ar  
     3     2     3 ar  
     4     2    20 ar  
     5     2    29 ar  
     6     3    38 1   
     7     4    34 ar  
     8     4    35 ar  
     9     4    36 1   
    10     5    17 1   
    11     5    19 ar  
    12     5    24 ar  
    13     6     8 1   
    14     6    14 1   
    15     6    32 1   
    16     6    39 1   
    17     7    15 1   
    18     7    16 1   
    19     7    32 1   
    20     7    40 1   
    21     8    16 1   
    22     8    41 1   
    23     8    42 1   
    24     9    10 1   
    25     9    36 1   
    26     9    43 1   
    27     9    44 1   
    28    10    12 1   
    29    10    33 1   
    30    10    45 1   
    31    11    18 1   
    32    11    33 1   
    33    11    46 1   
    34    11    47 1   
    35    12    18 1   
    36    12    48 1   
    37    12    49 1   
    38    13    17 ar  
    39    13    20 ar  
    40    13    30 1   
    41    14    31 1   
    42    14    50 1   
    43    14    51 1   
    44    15    31 1   
    45    15    52 1   
    46    15    53 1   
    47    16    54 1   
    48    16    55 1   
    49    18    56 1   
    50    18    57 1   
    51    19    21 ar  
    52    19    61 1   
    53    20    34 ar  
    54    21    22 ar  
    55    21    37 1   
    56    22    23 ar  
    57    22    62 1   
    58    23    24 ar  
    59    23    25 ar  
    60    24    28 ar  
    61    25    26 ar  
    62    25    63 1   
    63    26    27 ar  
    64    26    64 1   
    65    27    28 ar  
    66    27    65 1   
    67    28    66 1   
    68    29    31 1   
    69    29    35 ar  
    70    32    67 1   
    71    33    69 1   
    72    37    68 1   
    73    58    69 1   
    74    59    69 1   
    75    60    69 1   
@<TRIPOS>SUBSTRUCTURE
     1 7L8         1 TEMP              0 ****  ****    0 ROOT
