@<TRIPOS>MOLECULE
7L9
   27    28     1     0     0
SMALL
No Charge or Current Charge


@<TRIPOS>ATOM
      1 OAH          3.9990     0.4980     1.8920 o          1 7L9      -0.748000
      2 CAG          4.2070    -0.2810     0.9730 c          1 7L9       0.717600
      3 OAI          5.3190    -0.7250     0.7250 o          1 7L9      -0.748000
      4 CAE          3.0340    -0.7210     0.1110 ca         1 7L9      -0.154600
      5 CAD          1.7530    -0.1470     0.2950 ca         1 7L9      -0.035000
      6 CAF          3.1910    -1.7130    -0.8850 ca         1 7L9      -0.110000
      7 CAA          2.0990    -2.1210    -1.6660 ca         1 7L9      -0.177000
      8 CAB          0.8360    -1.5440    -1.4680 ca         1 7L9      -0.123000
      9 CAC          0.6410    -0.5390    -0.4930 cp         1 7L9      -0.010000
     10 CAJ         -0.7180     0.0480    -0.2680 cp         1 7L9      -0.016000
     11 CAK         -1.8270    -0.8100    -0.0750 ca         1 7L9      -0.151000
     12 CAL         -3.1230    -0.3000     0.1920 ca         1 7L9       0.241500
     13 CAS         -4.3100    -1.2880     0.4050 c          1 7L9       0.618500
     14 OAU         -5.4320    -0.8480     0.6410 o          1 7L9      -0.746500
     15 OAT         -4.1030    -2.4950     0.3330 o          1 7L9      -0.746500
     16 NAM         -3.3350     1.0540     0.2680 nb         1 7L9      -0.679000
     17 CAN         -2.2910     1.8890     0.0790 ca         1 7L9       0.295900
     18 CAO         -0.9940     1.4410    -0.1900 ca         1 7L9      -0.170600
     19 CAP          0.0990     2.4300    -0.4630 c          1 7L9       0.725600
     20 OAR          0.2120     3.3740     0.3040 o          1 7L9      -0.735500
     21 OAQ          0.7500     2.3210    -1.4920 o          1 7L9      -0.735500
     22 H2           1.6070     0.6070     1.0640 ha         1 7L9       0.149000
     23 H3           4.1610    -2.1760    -1.0520 ha         1 7L9       0.093000
     24 H4           2.2310    -2.8890    -2.4240 ha         1 7L9       0.054000
     25 H5          -0.0020    -1.8710    -2.0800 ha         1 7L9       0.085000
     26 H6          -1.6740    -1.8840    -0.1150 ha         1 7L9       0.116000
     27 H8          -2.5170     2.9540     0.1270 h4         1 7L9      -0.009900
@<TRIPOS>BOND
     1     1     2 1   
     2     2     3 1   
     3     2     4 1   
     4     4     5 ar  
     5     4     6 ar  
     6     5     9 ar  
     7     5    22 1   
     8     6     7 ar  
     9     6    23 1   
    10     7     8 ar  
    11     7    24 1   
    12     8     9 ar  
    13     8    25 1   
    14     9    10 1   
    15    10    11 ar  
    16    10    18 ar  
    17    11    12 ar  
    18    11    26 1   
    19    12    13 1   
    20    12    16 ar  
    21    13    14 1   
    22    13    15 1   
    23    16    17 ar  
    24    17    18 ar  
    25    17    27 1   
    26    18    19 1   
    27    19    20 1   
    28    19    21 1   
@<TRIPOS>SUBSTRUCTURE
     1 7L9         1 TEMP              0 ****  ****    0 ROOT
