@<TRIPOS>MOLECULE
7L9
   27    28     1     0     0
SMALL
abcg2


@<TRIPOS>ATOM
      1 OAH          3.9360     0.6900     1.7310 o          1 7L9      -0.748000
      2 CAG          4.1600    -0.2280     0.9200 c          1 7L9       0.717600
      3 OAI          5.2500    -0.7990     0.7240 o          1 7L9      -0.748000
      4 CAE          2.9800    -0.7020     0.0790 ca         1 7L9      -0.154600
      5 CAD          1.7270    -0.1220     0.2350 ca         1 7L9      -0.035000
      6 CAF          3.1340    -1.7230    -0.8570 ca         1 7L9      -0.110000
      7 CAA          2.0520    -2.1550    -1.6100 ca         1 7L9      -0.177000
      8 CAB          0.8030    -1.5760    -1.4330 ca         1 7L9      -0.123000
      9 CAC          0.6290    -0.5470    -0.5100 cp         1 7L9      -0.010000
     10 CAJ         -0.7110     0.0300    -0.2770 cp         1 7L9      -0.016000
     11 CAK         -1.7970    -0.8240    -0.1010 ca         1 7L9      -0.151000
     12 CAL         -3.0630    -0.3180     0.1660 ca         1 7L9       0.241500
     13 CAS         -4.2540    -1.2610     0.3390 c          1 7L9       0.618500
     14 OAU         -5.3650    -0.7330     0.5090 o          1 7L9      -0.746500
     15 OAT         -3.9960    -2.4800     0.2890 o          1 7L9      -0.746500
     16 NAM         -3.2740     0.9900     0.2900 nb         1 7L9      -0.679000
     17 CAN         -2.2390     1.8050     0.1450 ca         1 7L9       0.295900
     18 CAO         -0.9410     1.4040    -0.1600 ca         1 7L9      -0.170600
     19 CAP          0.1060     2.4770    -0.4190 c          1 7L9       0.725600
     20 OAR          0.1560     3.4000     0.4150 o          1 7L9      -0.735500
     21 OAQ          0.7780     2.3480    -1.4550 o          1 7L9      -0.735500
     22 H2           1.6050     0.6640     0.9690 ha         1 7L9       0.149000
     23 H3           4.1050    -2.1810    -0.9910 ha         1 7L9       0.093000
     24 H4           2.1770    -2.9470    -2.3370 ha         1 7L9       0.054000
     25 H5          -0.0370    -1.9170    -2.0270 ha         1 7L9       0.085000
     26 H6          -1.6600    -1.8960    -0.1550 ha         1 7L9       0.116000
     27 H8          -2.4480     2.8640     0.2610 h4         1 7L9      -0.009900
@<TRIPOS>BOND
     1     1     2 1   
     2     2     3 1   
     3     2     4 1   
     4     4     5 ar  
     5     4     6 ar  
     6     5     9 ar  
     7     5    22 1   
     8     6     7 ar  
     9     6    23 1   
    10     7     8 ar  
    11     7    24 1   
    12     8     9 ar  
    13     8    25 1   
    14     9    10 1   
    15    10    11 ar  
    16    10    18 ar  
    17    11    12 ar  
    18    11    26 1   
    19    12    13 1   
    20    12    16 ar  
    21    13    14 1   
    22    13    15 1   
    23    16    17 ar  
    24    17    18 ar  
    25    17    27 1   
    26    18    19 1   
    27    19    20 1   
    28    19    21 1   
@<TRIPOS>SUBSTRUCTURE
     1 7L9         1 TEMP              0 ****  ****    0 ROOT
