@<TRIPOS>MOLECULE
7LB
   40    41     1     0     0
SMALL
No Charge or Current Charge


@<TRIPOS>ATOM
      1 C4          -6.3140     0.2310     1.6070 c3         1 7LB       0.150100
      2 C5          -3.8070    -0.9800    -1.0260 c3         1 7LB      -0.040200
      3 C6          -2.7490     0.0750    -0.7480 c2         1 7LB      -0.173200
      4 C11          1.5840     2.7950     0.0070 ca         1 7LB       0.309900
      5 C7          -1.4130    -0.1340    -0.7660 ce         1 7LB      -0.185200
      6 C8          -0.3580     0.8890    -0.4930 ca         1 7LB      -0.056800
      7 C9           0.9980     0.5230    -0.6160 ca         1 7LB      -0.151000
      8 C10          1.9870     1.4910    -0.3500 ca         1 7LB       0.086100
      9 C13         -0.6600     2.2220    -0.1140 ca         1 7LB       0.308900
     10 N3          -5.5840     0.0890     0.3300 n7         1 7LB      -0.868400
     11 C1          -5.7760    -2.3410    -0.1180 c3         1 7LB      -0.128100
     12 C15          3.8630    -0.0270    -0.1230 ca         1 7LB       0.091100
     13 C16          4.8880    -0.5710    -0.9140 ca         1 7LB      -0.115000
     14 C17          5.4590    -1.8110    -0.5750 ca         1 7LB      -0.102500
     15 C18          5.0080    -2.5040     0.5620 ca         1 7LB      -0.110000
     16 C19          3.9910    -1.9560     1.3640 ca         1 7LB      -0.102500
     17 C2          -4.8130    -1.1600     0.1390 c3         1 7LB       0.173500
     18 C20          3.4200    -0.7160     1.0250 ca         1 7LB      -0.115000
     19 N12          0.2850     3.1630     0.1310 nb         1 7LB      -0.641000
     20 O14          3.3300     1.1950    -0.4690 os         1 7LB      -0.248200
     21 H41         -6.7870     1.2210     1.6700 h1         1 7LB       0.029033
     22 H42         -7.1040    -0.5250     1.7030 h1         1 7LB       0.029033
     23 H43         -5.6320     0.1270     2.4620 h1         1 7LB       0.029033
     24 H51         -4.3530    -0.7240    -1.9430 hc         1 7LB       0.046700
     25 H52         -3.3220    -1.9450    -1.2210 hc         1 7LB       0.046700
     26 H6          -3.1700     1.0560    -0.5250 ha         1 7LB       0.188000
     27 H9L          2.3270     3.5670     0.2060 h4         1 7LB       0.033100
     28 H7          -1.0300    -1.1300    -0.9970 ha         1 7LB       0.169000
     29 H9           1.2760    -0.4840    -0.9150 ha         1 7LB       0.129000
     30 H9M         -1.6890     2.5570    -0.0000 h4         1 7LB       0.024100
     31 H32         -6.2500     0.1820    -0.4460 hn         1 7LB       0.408000
     32 H11         -5.2100    -3.2630    -0.2950 hc         1 7LB       0.037700
     33 H12         -6.4290    -2.5170     0.7450 hc         1 7LB       0.037700
     34 H13         -6.4040    -2.1530    -0.9970 hc         1 7LB       0.037700
     35 H16          5.2370    -0.0330    -1.7920 ha         1 7LB       0.130000
     36 H17          6.2490    -2.2330    -1.1920 ha         1 7LB       0.117500
     37 H18          5.4500    -3.4630     0.8250 ha         1 7LB       0.117000
     38 H19          3.6480    -2.4890     2.2480 ha         1 7LB       0.117500
     39 H2          -4.2290    -1.3860     1.0430 h1         1 7LB       0.061700
     40 H20          2.6420    -0.2920     1.6550 ha         1 7LB       0.130000
@<TRIPOS>BOND
     1     1    10 1   
     2     1    21 1   
     3     1    22 1   
     4     1    23 1   
     5     2     3 1   
     6     2    17 1   
     7     2    24 1   
     8     2    25 1   
     9     3     5 2   
    10     3    26 1   
    11     4     8 ar  
    12     4    19 ar  
    13     4    27 1   
    14     5     6 1   
    15     5    28 1   
    16     6     7 ar  
    17     6     9 ar  
    18     7     8 ar  
    19     7    29 1   
    20     8    20 1   
    21     9    19 ar  
    22     9    30 1   
    23    10    17 1   
    24    10    31 1   
    25    11    17 1   
    26    11    32 1   
    27    11    33 1   
    28    11    34 1   
    29    12    13 ar  
    30    12    18 ar  
    31    12    20 1   
    32    13    14 ar  
    33    13    35 1   
    34    14    15 ar  
    35    14    36 1   
    36    15    16 ar  
    37    15    37 1   
    38    16    18 ar  
    39    16    38 1   
    40    17    39 1   
    41    18    40 1   
@<TRIPOS>SUBSTRUCTURE
     1 7LB         1 TEMP              0 ****  ****    0 ROOT
