@<TRIPOS>MOLECULE
7LB
   40    41     1     0     0
SMALL
abcg2


@<TRIPOS>ATOM
      1 C4          -6.3070     0.2420     1.3380 c3         1 7LB       0.150100
      2 C5          -3.6180    -1.0440    -0.9510 c3         1 7LB      -0.040200
      3 C6          -2.6470     0.0610    -0.7040 c2         1 7LB      -0.173200
      4 C11          1.5570     2.8680     0.0470 ca         1 7LB       0.309900
      5 C7          -1.3250    -0.1130    -0.6300 ce         1 7LB      -0.185200
      6 C8          -0.3210     0.9260    -0.3930 ca         1 7LB      -0.056800
      7 C9           1.0130     0.5560    -0.2210 ca         1 7LB      -0.151000
      8 C10          1.9650     1.5380     0.0020 ca         1 7LB       0.086100
      9 C13         -0.6190     2.2900    -0.3370 ca         1 7LB       0.308900
     10 N3          -5.4530     0.0940     0.1780 n7         1 7LB      -0.868400
     11 C1          -5.5550    -2.3960    -0.1040 c3         1 7LB      -0.128100
     12 C15          3.7390     0.0030     0.1990 ca         1 7LB       0.091100
     13 C16          4.1890    -0.5780    -0.9770 ca         1 7LB      -0.115000
     14 C17          4.6850    -1.8740    -0.9430 ca         1 7LB      -0.102500
     15 C18          4.7230    -2.5800     0.2530 ca         1 7LB      -0.110000
     16 C19          4.2660    -1.9840     1.4210 ca         1 7LB      -0.102500
     17 C2          -4.7010    -1.1490     0.1300 c3         1 7LB       0.173500
     18 C20          3.7670    -0.6890     1.4000 ca         1 7LB      -0.115000
     19 N12          0.2940     3.2250    -0.1210 nb         1 7LB      -0.641000
     20 O14          3.2880     1.3030     0.1790 os         1 7LB      -0.248200
     21 H41         -6.8230     1.2020     1.2890 h1         1 7LB       0.029033
     22 H42         -7.0720    -0.5350     1.4620 h1         1 7LB       0.029033
     23 H43         -5.6980     0.2470     2.2440 h1         1 7LB       0.029033
     24 H51         -4.1140    -0.8830    -1.9170 hc         1 7LB       0.046700
     25 H52         -3.0890    -1.9970    -1.0310 hc         1 7LB       0.046700
     26 H6          -3.0810     1.0470    -0.5690 ha         1 7LB       0.188000
     27 H9L          2.2840     3.6540     0.2230 h4         1 7LB       0.033100
     28 H7          -0.9270    -1.1170    -0.7510 ha         1 7LB       0.169000
     29 H9           1.2840    -0.4930    -0.2590 ha         1 7LB       0.129000
     30 H9M         -1.6350     2.6400    -0.4790 h4         1 7LB       0.024100
     31 H32         -6.0080     0.1800    -0.6660 hn         1 7LB       0.408000
     32 H11         -4.9500    -3.3030    -0.0660 hc         1 7LB       0.037700
     33 H12         -6.3410    -2.4950     0.6470 hc         1 7LB       0.037700
     34 H13         -6.0330    -2.3570    -1.0860 hc         1 7LB       0.037700
     35 H16          4.1570    -0.0210    -1.9050 ha         1 7LB       0.130000
     36 H17          5.0400    -2.3330    -1.8570 ha         1 7LB       0.117500
     37 H18          5.1120    -3.5890     0.2750 ha         1 7LB       0.117000
     38 H19          4.2980    -2.5280     2.3560 ha         1 7LB       0.117500
     39 H2          -4.1980    -1.2530     1.0990 h1         1 7LB       0.061700
     40 H20          3.4150    -0.2180     2.3090 ha         1 7LB       0.130000
@<TRIPOS>BOND
     1     1    10 1   
     2     1    21 1   
     3     1    22 1   
     4     1    23 1   
     5     2     3 1   
     6     2    17 1   
     7     2    24 1   
     8     2    25 1   
     9     3     5 2   
    10     3    26 1   
    11     4     8 ar  
    12     4    19 ar  
    13     4    27 1   
    14     5     6 1   
    15     5    28 1   
    16     6     7 ar  
    17     6     9 ar  
    18     7     8 ar  
    19     7    29 1   
    20     8    20 1   
    21     9    19 ar  
    22     9    30 1   
    23    10    17 1   
    24    10    31 1   
    25    11    17 1   
    26    11    32 1   
    27    11    33 1   
    28    11    34 1   
    29    12    13 ar  
    30    12    18 ar  
    31    12    20 1   
    32    13    14 ar  
    33    13    35 1   
    34    14    15 ar  
    35    14    36 1   
    36    15    16 ar  
    37    15    37 1   
    38    16    18 ar  
    39    16    38 1   
    40    17    39 1   
    41    18    40 1   
@<TRIPOS>SUBSTRUCTURE
     1 7LB         1 TEMP              0 ****  ****    0 ROOT
