@<TRIPOS>MOLECULE
7LD
   49    52     1     0     0
SMALL
bcc


@<TRIPOS>ATOM
      1 N1           5.1400     0.3890     0.3710 na         1 7LD      -0.178400
      2 N3          -3.8530     0.4660     0.2840 n          1 7LD      -0.481800
      3 C4           3.9710     2.5940    -0.1200 ca         1 7LD      -0.140000
      4 C5           2.6920     3.0830    -0.3510 ca         1 7LD      -0.112000
      5 C6           1.6650     0.8990    -0.1330 ca         1 7LD      -0.002800
      6 C7           3.3210    -0.9210     0.3760 cc         1 7LD      -0.141400
      7 C8           4.6780    -0.9010     0.5280 cd         1 7LD      -0.101100
      8 C10         -0.6750     0.1910     0.1230 c2         1 7LD      -0.152200
      9 C13         -1.2940    -1.9910    -0.8160 c6         1 7LD       0.176800
     10 C15          2.2500    -1.9560     0.4540 c6         1 7LD       0.010800
     11 C17         -3.6580     0.5660     1.7250 c3         1 7LD       0.101000
     12 C20         -4.7680     2.5400    -0.7160 c3         1 7LD      -0.112100
     13 N2          -0.0410    -2.4900    -0.2800 n3         1 7LD      -0.725600
     14 C12          0.2780    -3.7770    -0.8660 c3         1 7LD       0.154100
     15 C11          1.0490    -1.5390    -0.4330 c6         1 7LD       0.221700
     16 C3           2.9480     0.4150     0.1040 ca         1 7LD      -0.108800
     17 C1           4.0910     1.2230     0.1090 ca         1 7LD      -0.038200
     18 C2           1.5500     2.2620    -0.3670 ca         1 7LD      -0.141000
     19 C9           0.5990    -0.1140    -0.1280 ce         1 7LD      -0.042400
     20 C14         -1.7760    -0.8250     0.0320 c6         1 7LD      -0.104500
     21 C16         -3.0200    -0.1730    -0.5610 c          1 7LD       0.675100
     22 O1          -3.2310    -0.2160    -1.7670 o          1 7LD      -0.606100
     23 C19         -5.0410     1.1180    -0.2510 c3         1 7LD       0.101000
     24 C18         -4.3410    -0.5540     2.4940 c3         1 7LD      -0.112100
     25 H1           6.1070     0.6580     0.4320 hn         1 7LD       0.298700
     26 H2           4.8270     3.2560    -0.1250 ha         1 7LD       0.132000
     27 H3           2.5690     4.1420    -0.5370 ha         1 7LD       0.127000
     28 H4           5.3710    -1.7000     0.7400 h4         1 7LD       0.162000
     29 H5          -0.9350     1.2140     0.3790 ha         1 7LD       0.129000
     30 H6          -1.2010    -1.6850    -1.8680 h1         1 7LD       0.050700
     31 H7          -2.0290    -2.7980    -0.7800 h1         1 7LD       0.050700
     32 H8           2.6270    -2.9320     0.1460 hc         1 7LD       0.054200
     33 H9           1.8850    -2.0670     1.4810 hc         1 7LD       0.054200
     34 H10         -2.5970     0.6020     1.9680 h1         1 7LD       0.051450
     35 H11         -4.0580     1.5300     2.0420 h1         1 7LD       0.051450
     36 H12         -5.6900     3.0080    -1.0630 hc         1 7LD       0.041367
     37 H13         -4.3710     3.1520     0.0950 hc         1 7LD       0.041367
     38 H14         -4.0520     2.5550    -1.5370 hc         1 7LD       0.041367
     39 H16          1.1320    -4.2390    -0.3720 h1         1 7LD       0.031033
     40 H17         -0.5660    -4.4550    -0.7420 h1         1 7LD       0.031033
     41 H18          0.5060    -3.7160    -1.9410 h1         1 7LD       0.031033
     42 H19          1.4130    -1.5320    -1.4800 h1         1 7LD       0.040700
     43 H20          0.5880     2.7080    -0.5880 ha         1 7LD       0.132000
     44 H21         -2.0010    -1.2160     1.0300 hc         1 7LD       0.080700
     45 H22         -5.4430     0.5220    -1.0680 h1         1 7LD       0.051450
     46 H23         -5.7970     1.1200     0.5350 h1         1 7LD       0.051450
     47 H24         -5.4150    -0.5650     2.3090 hc         1 7LD       0.041367
     48 H25         -3.9410    -1.5290     2.2100 hc         1 7LD       0.041367
     49 H26         -4.1860    -0.4260     3.5650 hc         1 7LD       0.041367
@<TRIPOS>BOND
     1     1     7 1   
     2     1    17 1   
     3     1    25 1   
     4     2    11 1   
     5     2    21 1   
     6     2    23 1   
     7     3     4 ar  
     8     3    17 ar  
     9     3    26 1   
    10     4    18 ar  
    11     4    27 1   
    12     5    16 ar  
    13     5    18 ar  
    14     5    19 1   
    15     6     7 2   
    16     6    10 1   
    17     6    16 1   
    18     7    28 1   
    19     8    19 2   
    20     8    20 1   
    21     8    29 1   
    22     9    13 1   
    23     9    20 1   
    24     9    30 1   
    25     9    31 1   
    26    10    15 1   
    27    10    32 1   
    28    10    33 1   
    29    11    24 1   
    30    11    34 1   
    31    11    35 1   
    32    12    23 1   
    33    12    36 1   
    34    12    37 1   
    35    12    38 1   
    36    13    14 1   
    37    13    15 1   
    38    14    39 1   
    39    14    40 1   
    40    14    41 1   
    41    15    19 1   
    42    15    42 1   
    43    16    17 ar  
    44    18    43 1   
    45    20    21 1   
    46    20    44 1   
    47    21    22 2   
    48    23    45 1   
    49    23    46 1   
    50    24    47 1   
    51    24    48 1   
    52    24    49 1   
@<TRIPOS>SUBSTRUCTURE
     1 7LD         1 TEMP              0 ****  ****    0 ROOT
