@<TRIPOS>MOLECULE
7LD
   49    52     1     0     0
SMALL
No Charge or Current Charge


@<TRIPOS>ATOM
      1 N1           5.5890    -0.0720     0.1110 na         1 7LD      -0.228700
      2 N3          -4.0940     0.4610     0.1520 n          1 7LD      -0.414800
      3 C4           4.7920     2.2170    -0.6230 ca         1 7LD      -0.122000
      4 C5           3.6170     2.9630    -0.8940 ca         1 7LD      -0.094000
      5 C6           2.2160     1.0260    -0.3340 ca         1 7LD      -0.002800
      6 C7           3.4970    -0.9760     0.3430 cc         1 7LD      -0.141400
      7 C8           4.8570    -1.2460     0.4600 cd         1 7LD      -0.151100
      8 C10         -0.2510     0.8610     0.0200 c2         1 7LD      -0.202200
      9 C13         -1.4060    -1.3700    -0.3330 c6         1 7LD       0.176800
     10 C15          2.3100    -1.8530     0.6270 c6         1 7LD       0.010800
     11 C17         -4.2980     0.1570     1.5930 c3         1 7LD       0.101000
     12 C20         -5.8510     2.2200    -0.3450 c3         1 7LD      -0.112100
     13 N2          -0.2020    -2.0280     0.2360 n3         1 7LD      -0.725600
     14 C12         -0.1910    -3.4840    -0.0490 c3         1 7LD       0.154100
     15 C11          1.0630    -1.3210    -0.1800 c6         1 7LD       0.221700
     16 C3           3.4000     0.3560    -0.0810 ca         1 7LD      -0.108800
     17 C1           4.6370     0.8870    -0.2120 ca         1 7LD      -0.038200
     18 C2           2.3310     2.3730    -0.7530 ca         1 7LD      -0.123000
     19 C9           0.9440     0.2510    -0.1560 ce         1 7LD      -0.042400
     20 C14         -1.5420     0.0700     0.2040 c6         1 7LD      -0.104500
     21 C16         -2.8110     0.7290    -0.3980 c          1 7LD       0.608100
     22 O1          -2.7020     1.4480    -1.3860 o          1 7LD      -0.606100
     23 C19         -5.3110     0.8030    -0.6240 c3         1 7LD       0.101000
     24 C18         -4.4480    -1.3430     1.9030 c3         1 7LD      -0.112100
     25 H1           6.5980     0.0430     0.1030 hn         1 7LD       0.349000
     26 H2           5.7790     2.6620    -0.7340 ha         1 7LD       0.114000
     27 H3           3.7010     3.9980    -1.2190 ha         1 7LD       0.109000
     28 H4           5.3520    -2.1640     0.7700 h4         1 7LD       0.212000
     29 H5          -0.3380     1.9470     0.0480 ha         1 7LD       0.179000
     30 H6          -1.3400    -1.3400    -1.4320 h1         1 7LD       0.050700
     31 H7          -2.3150    -1.9380    -0.0890 h1         1 7LD       0.050700
     32 H8           2.5330    -2.8920     0.3550 hc         1 7LD       0.054200
     33 H9           2.0840    -1.8430     1.7010 hc         1 7LD       0.054200
     34 H10         -3.4880     0.5880     2.1940 h1         1 7LD       0.051450
     35 H11         -5.2170     0.6540     1.9280 h1         1 7LD       0.051450
     36 H12         -6.7320     2.4170    -0.9670 hc         1 7LD       0.041367
     37 H13         -6.1430     2.3350     0.7050 hc         1 7LD       0.041367
     38 H14         -5.0920     2.9760    -0.5790 hc         1 7LD       0.041367
     39 H16          0.6040    -3.9950     0.5070 h1         1 7LD       0.031033
     40 H17         -1.1430    -3.9430     0.2500 h1         1 7LD       0.031033
     41 H18         -0.0430    -3.6720    -1.1210 h1         1 7LD       0.031033
     42 H19          1.2550    -1.5710    -1.2340 h1         1 7LD       0.040700
     43 H20          1.4450     2.9600    -0.9810 ha         1 7LD       0.114000
     44 H21         -1.7070    -0.0750     1.2760 hc         1 7LD       0.080700
     45 H22         -5.1020     0.7010    -1.6980 h1         1 7LD       0.051450
     46 H23         -6.0950     0.0740    -0.3840 h1         1 7LD       0.051450
     47 H24         -5.2260    -1.7930     1.2740 hc         1 7LD       0.041367
     48 H25         -3.5090    -1.8800     1.7380 hc         1 7LD       0.041367
     49 H26         -4.7320    -1.4830     2.9520 hc         1 7LD       0.041367
@<TRIPOS>BOND
     1     1     7 1   
     2     1    17 1   
     3     1    25 1   
     4     2    11 1   
     5     2    21 1   
     6     2    23 1   
     7     3     4 ar  
     8     3    17 ar  
     9     3    26 1   
    10     4    18 ar  
    11     4    27 1   
    12     5    16 ar  
    13     5    18 ar  
    14     5    19 1   
    15     6     7 2   
    16     6    10 1   
    17     6    16 1   
    18     7    28 1   
    19     8    19 2   
    20     8    20 1   
    21     8    29 1   
    22     9    13 1   
    23     9    20 1   
    24     9    30 1   
    25     9    31 1   
    26    10    15 1   
    27    10    32 1   
    28    10    33 1   
    29    11    24 1   
    30    11    34 1   
    31    11    35 1   
    32    12    23 1   
    33    12    36 1   
    34    12    37 1   
    35    12    38 1   
    36    13    14 1   
    37    13    15 1   
    38    14    39 1   
    39    14    40 1   
    40    14    41 1   
    41    15    19 1   
    42    15    42 1   
    43    16    17 ar  
    44    18    43 1   
    45    20    21 1   
    46    20    44 1   
    47    21    22 2   
    48    23    45 1   
    49    23    46 1   
    50    24    47 1   
    51    24    48 1   
    52    24    49 1   
@<TRIPOS>SUBSTRUCTURE
     1 7LD         1 TEMP              0 ****  ****    0 ROOT
