@<TRIPOS>MOLECULE
7LE
   55    54     1     0     0
SMALL
abcg2


@<TRIPOS>ATOM
      1 C12         -0.8120     1.6840     0.8680 c2         1 7LE      -0.244200
      2 C13         -2.1400     1.6980     0.9560 c2         1 7LE      -0.186200
      3 C14         -3.1070     0.7250     0.3440 c3         1 7LE      -0.010000
      4 C15         -3.9040     0.0170     1.4020 c2         1 7LE      -0.256200
      5 O4          -9.1370    -1.1140    -1.5310 o          1 7LE      -0.742000
      6 C20         -9.2410     0.1280    -1.5010 c          1 7LE       0.717000
      7 O3         -10.0980     0.8120    -2.1010 o          1 7LE      -0.742000
      8 C19         -8.2240     0.9160    -0.6560 c3         1 7LE      -0.206400
      9 C18         -7.1930     0.0860     0.0900 c3         1 7LE      -0.049400
     10 C17         -6.2070     0.9510     0.8800 c3         1 7LE      -0.061200
     11 C16         -5.2120     0.1270     1.6340 c2         1 7LE      -0.176200
     12 C11          0.0420     0.7160     0.0990 c3         1 7LE      -0.010000
     13 C10          0.5830     1.3800    -1.1360 c2         1 7LE      -0.193200
     14 C9           1.8320     1.7840    -1.3600 c2         1 7LE      -0.234200
     15 C8           3.0020     1.6490    -0.4360 c3         1 7LE      -0.070200
     16 C7           4.1140     0.7690    -1.0140 c3         1 7LE       0.140300
     17 O2           4.5740     1.2540    -2.2600 oh         1 7LE      -0.660000
     18 C6           5.2650     0.5830    -0.0170 c3         1 7LE       0.139300
     19 C5           6.2880    -0.4420    -0.5100 c3         1 7LE      -0.074200
     20 C4           7.3540    -0.7190     0.5040 c2         1 7LE      -0.214200
     21 C3           7.5920    -1.8700     1.1310 c2         1 7LE      -0.215200
     22 C2           6.8850    -3.1790     0.9670 c3         1 7LE      -0.045200
     23 C1           7.8340    -4.2810     0.4980 c3         1 7LE      -0.086100
     24 O1           5.8740     1.8160     0.3120 oh         1 7LE      -0.660000
     25 H1          -0.2620     2.4790     1.3640 ha         1 7LE       0.160000
     26 H3          -2.6010     2.4910     1.5380 ha         1 7LE       0.168000
     27 H5          -3.7680     1.2640    -0.3390 hc         1 7LE       0.053700
     28 H7          -3.3260    -0.6410     2.0450 ha         1 7LE       0.153000
     29 H10         -7.7140     1.6280    -1.3160 hc         1 7LE       0.014700
     30 H11         -8.7790     1.5410     0.0540 hc         1 7LE       0.014700
     31 H12         -7.6940    -0.6070     0.7720 hc         1 7LE       0.041200
     32 H13         -6.6330    -0.5340    -0.6140 hc         1 7LE       0.041200
     33 H14         -5.7100     1.6470     0.1990 hc         1 7LE       0.033700
     34 H16         -5.6250    -0.4640     2.4480 ha         1 7LE       0.159000
     35 H18          0.8510     0.3580     0.7380 hc         1 7LE       0.048200
     36 H20         -0.1580     1.5700    -1.9080 ha         1 7LE       0.175000
     37 H21          2.0360     2.2680    -2.3100 ha         1 7LE       0.169000
     38 H22          3.4120     2.6430    -0.2230 hc         1 7LE       0.054700
     39 H24          3.6940    -0.2230    -1.2160 h1         1 7LE       0.077700
     40 H25          4.7590     2.1950    -2.1740 ho         1 7LE       0.438000
     41 H26          4.8270     0.2080     0.9150 h1         1 7LE       0.077700
     42 H27          5.7590    -1.3570    -0.7850 hc         1 7LE       0.056700
     43 H28          6.7480    -0.0680    -1.4320 hc         1 7LE       0.056700
     44 H29          7.9940     0.1230     0.7540 ha         1 7LE       0.169000
     45 H30          8.4120    -1.8870     1.8450 ha         1 7LE       0.163000
     46 H31          6.4550    -3.4720     1.9300 hc         1 7LE       0.045200
     47 H32          6.0480    -3.0960     0.2720 hc         1 7LE       0.045200
     48 H33          8.2520    -4.0490    -0.4820 hc         1 7LE       0.032033
     49 H34          8.6670    -4.4060     1.1920 hc         1 7LE       0.032033
     50 H35          7.3170    -5.2390     0.4250 hc         1 7LE       0.032033
     51 H36          6.4650     2.0680    -0.4050 ho         1 7LE       0.437000
     52 H2          -2.5770    -0.0150    -0.2620 hc         1 7LE       0.053700
     53 H4          -6.7670     1.5700     1.5900 hc         1 7LE       0.033700
     54 H6          -0.5340    -0.1650    -0.1930 hc         1 7LE       0.048200
     55 H8           2.6950     1.2350     0.5260 hc         1 7LE       0.054700
@<TRIPOS>BOND
     1     1     2 2   
     2     1    12 1   
     3     1    25 1   
     4     2     3 1   
     5     2    26 1   
     6     3     4 1   
     7     3    27 1   
     8     3    52 1   
     9     4    11 2   
    10     4    28 1   
    11     5     6 1   
    12     6     7 1   
    13     6     8 1   
    14     8     9 1   
    15     8    29 1   
    16     8    30 1   
    17     9    10 1   
    18     9    31 1   
    19     9    32 1   
    20    10    11 1   
    21    10    33 1   
    22    10    53 1   
    23    11    34 1   
    24    12    13 1   
    25    12    35 1   
    26    12    54 1   
    27    13    14 2   
    28    13    36 1   
    29    14    15 1   
    30    14    37 1   
    31    15    16 1   
    32    15    38 1   
    33    15    55 1   
    34    16    17 1   
    35    16    18 1   
    36    16    39 1   
    37    17    40 1   
    38    18    19 1   
    39    18    24 1   
    40    18    41 1   
    41    19    20 1   
    42    19    42 1   
    43    19    43 1   
    44    20    21 2   
    45    20    44 1   
    46    21    22 1   
    47    21    45 1   
    48    22    23 1   
    49    22    46 1   
    50    22    47 1   
    51    23    48 1   
    52    23    49 1   
    53    23    50 1   
    54    24    51 1   
@<TRIPOS>SUBSTRUCTURE
     1 7LE         1 TEMP              0 ****  ****    0 ROOT
