@<TRIPOS>MOLECULE
7LE
   55    54     1     0     0
SMALL
No Charge or Current Charge


@<TRIPOS>ATOM
      1 C12         -0.4680     2.8440     1.0770 c2         1 7LE      -0.244200
      2 C13         -1.6350     2.2860     1.4450 c2         1 7LE      -0.186200
      3 C14         -2.2000     0.9580     0.9790 c3         1 7LE      -0.010000
      4 C15         -2.9580     0.2740     2.1020 c2         1 7LE      -0.256200
      5 O4          -5.5900    -2.0340    -3.0140 o          1 7LE      -0.742000
      6 C20         -6.3560    -2.0560    -2.0630 c          1 7LE       0.717000
      7 O3          -7.0800    -3.0040    -1.7990 o          1 7LE      -0.742000
      8 C19         -6.3680    -0.8460    -1.1110 c3         1 7LE      -0.206400
      9 C18         -5.3230    -1.0420     0.0150 c3         1 7LE      -0.049400
     10 C17         -5.2790     0.1300     1.0180 c3         1 7LE      -0.061200
     11 C16         -4.2530    -0.0900     2.1140 c2         1 7LE      -0.176200
     12 C11          0.5420     2.2840     0.0940 c3         1 7LE      -0.010000
     13 C10          1.2150     3.4000    -0.6840 c2         1 7LE      -0.193200
     14 C9           2.5360     3.6100    -0.8310 c2         1 7LE      -0.234200
     15 C8           3.6630     2.7850    -0.2290 c3         1 7LE      -0.070200
     16 C7           3.9370     1.4740    -1.0080 c3         1 7LE       0.140300
     17 O2           4.3270     1.8050    -2.3550 oh         1 7LE      -0.660000
     18 C6           5.0290     0.5780    -0.3420 c3         1 7LE       0.139300
     19 C5           5.1070    -0.8390    -0.9660 c3         1 7LE      -0.074200
     20 C4           6.0320    -1.7730    -0.2010 c2         1 7LE      -0.214200
     21 C3           5.6750    -2.6930     0.7130 c2         1 7LE      -0.215200
     22 C2           4.2730    -2.9830     1.2180 c3         1 7LE      -0.045200
     23 C1           3.6290    -4.1760     0.4900 c3         1 7LE      -0.086100
     24 O1           6.3060     1.2230    -0.4690 oh         1 7LE      -0.660000
     25 H1          -0.1780     3.8070     1.5040 ha         1 7LE       0.160000
     26 H3          -2.2750     2.8070     2.1600 ha         1 7LE       0.168000
     27 H5          -2.8410     1.1230     0.1060 hc         1 7LE       0.053700
     28 H7          -2.3360     0.0540     2.9720 ha         1 7LE       0.153000
     29 H10         -6.0670     0.0650    -1.6440 hc         1 7LE       0.014700
     30 H11         -7.3390    -0.7620    -0.6090 hc         1 7LE       0.014700
     31 H12         -5.5470    -1.9690     0.5580 hc         1 7LE       0.041200
     32 H13         -4.3290    -1.1680    -0.4330 hc         1 7LE       0.041200
     33 H14         -5.0730     1.0600     0.4750 hc         1 7LE       0.033700
     34 H16         -4.6600    -0.5900     2.9960 ha         1 7LE       0.159000
     35 H18          1.2780     1.6800     0.6380 hc         1 7LE       0.048200
     36 H20          0.5080     4.0770    -1.1690 ha         1 7LE       0.175000
     37 H21          2.8800     4.4610    -1.4240 ha         1 7LE       0.169000
     38 H22          4.5790     3.3880    -0.1860 hc         1 7LE       0.054700
     39 H24          3.0000     0.8990    -1.0210 h1         1 7LE       0.077700
     40 H25          3.6230     2.3910    -2.7090 ho         1 7LE       0.438000
     41 H26          4.7670     0.4580     0.7190 h1         1 7LE       0.077700
     42 H27          4.0950    -1.2590    -1.0060 hc         1 7LE       0.056700
     43 H28          5.4350    -0.7650    -2.0100 hc         1 7LE       0.056700
     44 H29          7.0850    -1.6560    -0.4630 ha         1 7LE       0.169000
     45 H30          6.4450    -3.3080     1.1840 ha         1 7LE       0.163000
     46 H31          4.3030    -3.1940     2.2940 hc         1 7LE       0.045200
     47 H32          3.6250    -2.1060     1.1020 hc         1 7LE       0.045200
     48 H33          3.5510    -3.9750    -0.5860 hc         1 7LE       0.032033
     49 H34          4.2270    -5.0840     0.6300 hc         1 7LE       0.032033
     50 H35          2.6210    -4.3630     0.8790 hc         1 7LE       0.032033
     51 H36          6.2550     1.6790    -1.3400 ho         1 7LE       0.437000
     52 H2          -1.3970     0.2950     0.6370 hc         1 7LE       0.053700
     53 H4          -6.2720     0.2600     1.4660 hc         1 7LE       0.033700
     54 H6           0.0560     1.6020    -0.6130 hc         1 7LE       0.048200
     55 H8           3.4270     2.5340     0.8120 hc         1 7LE       0.054700
@<TRIPOS>BOND
     1     1     2 2   
     2     1    12 1   
     3     1    25 1   
     4     2     3 1   
     5     2    26 1   
     6     3     4 1   
     7     3    27 1   
     8     3    52 1   
     9     4    11 2   
    10     4    28 1   
    11     5     6 1   
    12     6     7 1   
    13     6     8 1   
    14     8     9 1   
    15     8    29 1   
    16     8    30 1   
    17     9    10 1   
    18     9    31 1   
    19     9    32 1   
    20    10    11 1   
    21    10    33 1   
    22    10    53 1   
    23    11    34 1   
    24    12    13 1   
    25    12    35 1   
    26    12    54 1   
    27    13    14 2   
    28    13    36 1   
    29    14    15 1   
    30    14    37 1   
    31    15    16 1   
    32    15    38 1   
    33    15    55 1   
    34    16    17 1   
    35    16    18 1   
    36    16    39 1   
    37    17    40 1   
    38    18    19 1   
    39    18    24 1   
    40    18    41 1   
    41    19    20 1   
    42    19    42 1   
    43    19    43 1   
    44    20    21 2   
    45    20    44 1   
    46    21    22 1   
    47    21    45 1   
    48    22    23 1   
    49    22    46 1   
    50    22    47 1   
    51    23    48 1   
    52    23    49 1   
    53    23    50 1   
    54    24    51 1   
@<TRIPOS>SUBSTRUCTURE
     1 7LE         1 TEMP              0 ****  ****    0 ROOT
