@<TRIPOS>MOLECULE
7LF
   44    47     1     0     0
SMALL
bcc


@<TRIPOS>ATOM
      1 N            0.9980     1.2490    -0.8800 na         1 7LF       0.003900
      2 C           -1.2330     1.0280     0.0950 c          1 7LF       0.583700
      3 O           -0.7120     1.3590     1.1350 o          1 7LF      -0.513100
      4 C6           0.6880    -3.6000     0.5090 ca         1 7LF       0.192900
      5 C5           0.8010    -2.7260     1.5730 ca         1 7LF      -0.166500
      6 C4           1.1630    -1.4130     1.3180 ca         1 7LF      -0.060000
      7 C7           0.9250    -3.2120    -0.7970 ca         1 7LF      -0.166500
      8 C8           1.2820    -1.8980    -1.0430 ca         1 7LF      -0.060000
      9 C3           1.3950    -0.9940     0.0110 ca         1 7LF      -0.166000
     10 C2           1.8030     0.3980    -0.2450 cc         1 7LF       0.234700
     11 C9           3.0590     0.8280     0.1600 cc         1 7LF      -0.177300
     12 N1           3.4430     2.1540    -0.0740 na         1 7LF       0.057700
     13 C12          4.6810     2.3440     0.4010 cc         1 7LF      -0.073100
     14 C11          5.1220     1.1450     0.9520 cd         1 7LF      -0.160000
     15 C10          4.1210     0.1940     0.8020 cd         1 7LF      -0.059000
     16 C13          2.5880     3.0080    -0.7170 cc         1 7LF      -0.064300
     17 C14          1.3880     2.5550    -1.1050 cd         1 7LF      -0.112300
     18 C1          -0.3860     0.9090    -1.1690 c3         1 7LF      -0.105700
     19 C15         -2.6700     0.7240    -0.0230 ca         1 7LF      -0.207600
     20 C21         -3.2520     0.3380    -1.2310 ca         1 7LF      -0.069000
     21 C20         -4.6070     0.0630    -1.3000 ca         1 7LF      -0.138500
     22 C18         -5.4170     0.1620    -0.1710 ca         1 7LF      -0.011300
     23 C19         -6.8770    -0.1650    -0.2390 c3         1 7LF      -0.064800
     24 C17         -4.8290     0.5500     1.0350 ca         1 7LF      -0.138500
     25 C16         -3.4780     0.8260     1.1120 ca         1 7LF      -0.069000
     26 H1           0.6100    -3.0600     2.5840 ha         1 7LF       0.176000
     27 H2           1.2530    -0.7150     2.1390 ha         1 7LF       0.154000
     28 H3           0.8390    -3.9230    -1.6080 ha         1 7LF       0.176000
     29 H4           1.4800    -1.5820    -2.0590 ha         1 7LF       0.154000
     30 H5           5.1720     3.3000     0.3230 h4         1 7LF       0.202000
     31 H6           6.0850     0.9970     1.4130 ha         1 7LF       0.191000
     32 H7           4.1430    -0.8370     1.1160 ha         1 7LF       0.188000
     33 H8           2.9120     4.0220    -0.8900 h4         1 7LF       0.206000
     34 H9           0.6840     3.1930    -1.6130 h4         1 7LF       0.202000
     35 H10         -0.7530     1.5890    -1.9380 h1         1 7LF       0.109200
     36 H11         -0.4550    -0.0930    -1.5890 h1         1 7LF       0.109200
     37 H12         -2.6630     0.2490    -2.1350 ha         1 7LF       0.138500
     38 H13         -5.0400    -0.2320    -2.2470 ha         1 7LF       0.149000
     39 H14         -7.0390    -1.2240    -0.0240 hc         1 7LF       0.059367
     40 H15         -7.4480     0.4040     0.4940 hc         1 7LF       0.059367
     41 H16         -7.2880     0.0340    -1.2270 hc         1 7LF       0.059367
     42 H17         -5.4420     0.6390     1.9230 ha         1 7LF       0.149000
     43 H18         -3.0470     1.1260     2.0570 ha         1 7LF       0.138500
     44 F            0.3420    -4.8670     0.7510 f          1 7LF      -0.109900
@<TRIPOS>BOND
     1     1    10 2   
     2     1    17 1   
     3     1    18 1   
     4     2     3 2   
     5     2    18 1   
     6     2    19 1   
     7     4     5 ar  
     8     4     7 ar  
     9     4    44 1   
    10     5     6 ar  
    11     5    26 1   
    12     6     9 ar  
    13     6    27 1   
    14     7     8 ar  
    15     7    28 1   
    16     8     9 ar  
    17     8    29 1   
    18     9    10 1   
    19    10    11 1   
    20    11    12 1   
    21    11    15 2   
    22    12    13 1   
    23    12    16 1   
    24    13    14 2   
    25    13    30 1   
    26    14    15 1   
    27    14    31 1   
    28    15    32 1   
    29    16    17 2   
    30    16    33 1   
    31    17    34 1   
    32    18    35 1   
    33    18    36 1   
    34    19    20 ar  
    35    19    25 ar  
    36    20    21 ar  
    37    20    37 1   
    38    21    22 ar  
    39    21    38 1   
    40    22    23 1   
    41    22    24 ar  
    42    23    39 1   
    43    23    40 1   
    44    23    41 1   
    45    24    25 ar  
    46    24    42 1   
    47    25    43 1   
@<TRIPOS>SUBSTRUCTURE
     1 7LF         1 TEMP              0 ****  ****    0 ROOT
