@<TRIPOS>MOLECULE
7LF
   44    47     1     0     0
SMALL
No Charge or Current Charge


@<TRIPOS>ATOM
      1 N            1.1650     1.7400    -1.1210 na         1 7LF       0.025300
      2 C           -1.1700     1.9840    -0.2190 c          1 7LF       0.583700
      3 O           -0.9360     2.7450     0.7120 o          1 7LF      -0.513100
      4 C6          -1.0870    -2.6280     0.5420 ca         1 7LF       0.228000
      5 C5          -0.3270    -2.0340     1.5580 ca         1 7LF      -0.148500
      6 C4           0.5580    -0.9850     1.2530 ca         1 7LF      -0.042000
      7 C7          -0.9590    -2.1880    -0.7810 ca         1 7LF      -0.148500
      8 C8          -0.0780    -1.1370    -1.0900 ca         1 7LF      -0.042000
      9 C3           0.6810    -0.5110    -0.0730 ca         1 7LF      -0.166000
     10 C2           1.5860     0.6120    -0.3850 cc         1 7LF       0.234700
     11 C9           2.8680     0.7480     0.2160 cc         1 7LF      -0.228000
     12 N1           3.6730     1.8290     0.0130 na         1 7LF       0.159100
     13 C12          4.9360     1.7140     0.5720 cc         1 7LF      -0.123100
     14 C11          4.8750     0.4970     1.2230 cd         1 7LF      -0.210000
     15 C10          3.6030    -0.1110     0.9970 cd         1 7LF      -0.109000
     16 C13          3.3890     2.7780    -0.9630 cc         1 7LF      -0.097000
     17 C14          2.0990     2.7340    -1.5150 cd         1 7LF      -0.145000
     18 C1          -0.2630     1.9770    -1.4580 c3         1 7LF      -0.076400
     19 C15         -2.3330     1.0220    -0.1430 ca         1 7LF      -0.207600
     20 C21         -3.0270     0.5990    -1.3000 ca         1 7LF      -0.051000
     21 C20         -4.0720    -0.3350    -1.1990 ca         1 7LF      -0.120500
     22 C18         -4.4470    -0.8550     0.0520 ca         1 7LF      -0.011300
     23 C19         -5.5660    -1.8790     0.1570 c3         1 7LF      -0.064800
     24 C17         -3.7730    -0.4230     1.2070 ca         1 7LF      -0.120500
     25 C16         -2.7280     0.5110     1.1120 ca         1 7LF      -0.051000
     26 H1          -0.4330    -2.3800     2.5830 ha         1 7LF       0.158000
     27 H2           1.1110    -0.5100     2.0610 ha         1 7LF       0.136000
     28 H3          -1.5410    -2.6630    -1.5660 ha         1 7LF       0.158000
     29 H4           0.0340    -0.8360    -2.1290 ha         1 7LF       0.136000
     30 H5           5.7220     2.4540     0.4630 h4         1 7LF       0.252000
     31 H6           5.6920     0.0510     1.7900 ha         1 7LF       0.241000
     32 H7           3.3010    -1.0990     1.3420 ha         1 7LF       0.238000
     33 H8           4.1520     3.5110    -1.1980 h4         1 7LF       0.188000
     34 H9           1.7540     3.4740    -2.2300 h4         1 7LF       0.184000
     35 H10         -0.3830     2.9540    -1.9390 h1         1 7LF       0.109200
     36 H11         -0.6000     1.2240    -2.1720 h1         1 7LF       0.109200
     37 H12         -2.7700     0.9880    -2.2830 ha         1 7LF       0.120500
     38 H13         -4.5900    -0.6580    -2.1000 ha         1 7LF       0.131000
     39 H14         -5.1640    -2.8990     0.1230 hc         1 7LF       0.059367
     40 H15         -6.1220    -1.7690     1.0950 hc         1 7LF       0.059367
     41 H16         -6.2850    -1.7740    -0.6650 hc         1 7LF       0.059367
     42 H17         -4.0520    -0.8180     2.1810 ha         1 7LF       0.131000
     43 H18         -2.2090     0.8200     2.0180 ha         1 7LF       0.120500
     44 F           -1.9430    -3.6300     0.8390 f          1 7LF      -0.145000
@<TRIPOS>BOND
     1     1    10 2   
     2     1    17 1   
     3     1    18 1   
     4     2     3 2   
     5     2    18 1   
     6     2    19 1   
     7     4     5 ar  
     8     4     7 ar  
     9     4    44 1   
    10     5     6 ar  
    11     5    26 1   
    12     6     9 ar  
    13     6    27 1   
    14     7     8 ar  
    15     7    28 1   
    16     8     9 ar  
    17     8    29 1   
    18     9    10 1   
    19    10    11 1   
    20    11    12 1   
    21    11    15 2   
    22    12    13 1   
    23    12    16 1   
    24    13    14 2   
    25    13    30 1   
    26    14    15 1   
    27    14    31 1   
    28    15    32 1   
    29    16    17 2   
    30    16    33 1   
    31    17    34 1   
    32    18    35 1   
    33    18    36 1   
    34    19    20 ar  
    35    19    25 ar  
    36    20    21 ar  
    37    20    37 1   
    38    21    22 ar  
    39    21    38 1   
    40    22    23 1   
    41    22    24 ar  
    42    23    39 1   
    43    23    40 1   
    44    23    41 1   
    45    24    25 ar  
    46    24    42 1   
    47    25    43 1   
@<TRIPOS>SUBSTRUCTURE
     1 7LF         1 TEMP              0 ****  ****    0 ROOT
