@<TRIPOS>MOLECULE
7LG
  122   124     1     0     0
SMALL
bcc


@<TRIPOS>ATOM
      1 CBI         -6.7000    -1.6970    -3.0990 c3         1 7LG       0.142100
      2 NBE         -7.6210    -2.0290    -2.0320 n3         1 7LG      -0.692600
      3 CBD         -8.2390    -3.3210    -2.2930 c6         1 7LG       0.165800
      4 CBC         -9.2570    -3.6940    -1.2300 c6         1 7LG      -0.076400
      5 CBH         -8.6090    -3.6950     0.1450 c6         1 7LG      -0.075400
      6 CBG         -7.9400    -2.3520     0.3920 c6         1 7LG      -0.071400
      7 CBF         -6.9670    -2.0030    -0.7360 c6         1 7LG       0.105500
      8 CBJ         -6.4070    -0.6110    -0.4650 c          1 7LG       0.669100
      9 OBK         -7.1150     0.3840    -0.4890 o          1 7LG      -0.595100
     10 N           -5.0990    -0.5920    -0.1570 ns         1 7LG      -0.560900
     11 CA          -4.3580     0.6040     0.1460 c3         1 7LG       0.036700
     12 CB          -3.8940     0.6210     1.6190 c3         1 7LG      -0.071700
     13 CG2         -5.1020     0.6690     2.5470 c3         1 7LG      -0.085100
     14 CG1         -2.9490    -0.5330     1.9580 c3         1 7LG      -0.079400
     15 CD1         -2.2400    -0.3540     3.2940 c3         1 7LG      -0.087100
     16 C           -3.1920     0.7090    -0.8530 c          1 7LG       0.658100
     17 O           -2.8220    -0.3050    -1.4270 o          1 7LG      -0.611100
     18 NAA         -2.6200     1.9210    -1.0760 n          1 7LG      -0.473800
     19 CAL         -2.9710     3.1240    -0.3310 c3         1 7LG       0.099000
     20 CAM         -2.0280     3.4990     0.8190 c3         1 7LG      -0.104400
     21 CAN         -2.7220     4.3600     1.8670 c3         1 7LG      -0.075400
     22 CAO         -1.8190     4.6810     3.0490 c3         1 7LG      -0.077400
     23 CAP         -2.5080     5.5190     4.1190 c3         1 7LG      -0.074400
     24 CAQ         -1.6060     5.8060     5.3110 c3         1 7LG      -0.089100
     25 CAB         -1.6270     2.0240    -2.1550 c3         1 7LG       0.104700
     26 CAJ         -2.0100     3.1000    -3.1880 c3         1 7LG      -0.069700
     27 CAS         -1.0520     3.0700    -4.3790 c3         1 7LG      -0.090100
     28 CAR         -3.4410     2.8910    -3.6780 c3         1 7LG      -0.090100
     29 CAC         -0.2070     2.2120    -1.6100 c3         1 7LG      -0.087400
     30 CAD          0.2170     1.1100    -0.6470 c3         1 7LG       0.131800
     31 OAK          0.3320    -0.0800    -1.4070 os         1 7LG      -0.398900
     32 CCC          0.3390    -1.2470    -0.7550 c          1 7LG       0.662100
     33 OCE          0.2900    -1.3320     0.4440 o          1 7LG      -0.548000
     34 CCD          0.4100    -2.3960    -1.7120 c3         1 7LG      -0.157100
     35 CAE          1.5380     1.4110     0.0010 cc         1 7LG       0.403700
     36 NAI          2.6510     0.8550    -0.3250 nd         1 7LG      -0.619000
     37 SAF          1.6770     2.5680     1.2810 ss         1 7LG      -0.207300
     38 CAG          3.3550     2.2530     1.3620 cc         1 7LG      -0.129400
     39 CAH          3.6870     1.3130     0.4390 cd         1 7LG       0.295800
     40 CAT          5.0430     0.7200     0.3040 c          1 7LG       0.595600
     41 OBL          5.9560     1.0660     1.0390 o          1 7LG      -0.609100
     42 NBM          5.1400    -0.2050    -0.6650 ns         1 7LG      -0.535900
     43 CBN          6.1900    -1.2030    -0.7310 c3         1 7LG       0.105700
     44 CBP          6.6120    -1.3960    -2.1860 c3         1 7LG      -0.064400
     45 CBR          7.6960    -2.4520    -2.4200 c3         1 7LG      -0.194700
     46 CBS          8.9650    -2.1530    -1.6350 c3         1 7LG      -0.058100
     47 CBT          7.9440    -2.6220    -3.9390 c          1 7LG       0.929600
     48 OCB          6.9280    -2.7900    -4.6470 o          1 7LG      -0.839300
     49 OCA          9.1220    -2.5980    -4.3450 o          1 7LG      -0.839300
     50 CBO          5.6920    -2.5160    -0.0910 c3         1 7LG      -0.060100
     51 CBQ          5.0760    -2.2950     1.2600 ca         1 7LG      -0.083300
     52 CBU          5.8650    -2.2470     2.4050 ca         1 7LG      -0.098000
     53 CBV          5.3170    -1.9640     3.6480 ca         1 7LG      -0.169500
     54 CBW          3.9600    -1.7190     3.7310 ca         1 7LG       0.113900
     55 FBZ          3.4210    -1.4350     4.9310 f          1 7LG      -0.161900
     56 CBX          3.1400    -1.7600     2.6210 ca         1 7LG      -0.169500
     57 CBY          3.7110    -2.0540     1.3920 ca         1 7LG      -0.098000
     58 H1          -7.2190    -1.7380    -4.0570 h1         1 7LG       0.036033
     59 H2          -6.3130    -0.6820    -2.9900 h1         1 7LG       0.036033
     60 H3          -5.8390    -2.3810    -3.1540 h1         1 7LG       0.036033
     61 H5          -8.7230    -3.2710    -3.2720 h1         1 7LG       0.031200
     62 H6          -7.4780    -4.1200    -2.3600 h1         1 7LG       0.031200
     63 H7         -10.0840    -2.9770    -1.2500 hc         1 7LG       0.047200
     64 H8          -9.6770    -4.6740    -1.4660 hc         1 7LG       0.047200
     65 H9          -9.3470    -3.8960     0.9250 hc         1 7LG       0.039700
     66 H10         -7.8620    -4.4940     0.2010 hc         1 7LG       0.039700
     67 H11         -8.7000    -1.5690     0.4600 hc         1 7LG       0.057200
     68 H12         -7.3960    -2.3580     1.3400 hc         1 7LG       0.057200
     69 H13         -6.1380    -2.7380    -0.7080 h1         1 7LG       0.025700
     70 H14         -4.5750    -1.4450    -0.2640 hn         1 7LG       0.330500
     71 H15         -5.0480     1.4360    -0.0000 h1         1 7LG       0.092700
     72 H16         -3.3380     1.5490     1.7640 hc         1 7LG       0.053700
     73 H17         -5.7070    -0.2350     2.4630 hc         1 7LG       0.036700
     74 H18         -4.7910     0.7620     3.5870 hc         1 7LG       0.036700
     75 H19         -5.7440     1.5230     2.3230 hc         1 7LG       0.036700
     76 H20         -3.5060    -1.4750     1.9630 hc         1 7LG       0.049700
     77 H21         -2.1840    -0.6350     1.1850 hc         1 7LG       0.049700
     78 H22         -1.5080    -1.1460     3.4510 hc         1 7LG       0.033700
     79 H23         -1.7010     0.5970     3.3270 hc         1 7LG       0.033700
     80 H24         -2.9280    -0.3700     4.1390 hc         1 7LG       0.033700
     81 H25         -3.0320     3.9620    -1.0260 h1         1 7LG       0.051200
     82 H26         -3.9830     3.0200     0.0580 h1         1 7LG       0.051200
     83 H27         -1.6410     2.5970     1.3030 hc         1 7LG       0.050200
     84 H28         -1.1570     4.0400     0.4440 hc         1 7LG       0.050200
     85 H29         -3.0760     5.2880     1.4060 hc         1 7LG       0.038200
     86 H30         -3.6180     3.8380     2.2250 hc         1 7LG       0.038200
     87 H31         -1.4620     3.7450     3.4950 hc         1 7LG       0.042200
     88 H32         -0.9240     5.2060     2.6980 hc         1 7LG       0.042200
     89 H33         -2.8470     6.4610     3.6780 hc         1 7LG       0.035200
     90 H34         -3.4110     4.9990     4.4550 hc         1 7LG       0.035200
     91 H35         -2.1180     6.4000     6.0690 hc         1 7LG       0.032367
     92 H36         -1.2720     4.8800     5.7840 hc         1 7LG       0.032367
     93 H37         -0.7150     6.3580     5.0070 hc         1 7LG       0.032367
     94 H38         -1.6580     1.0710    -2.6820 h1         1 7LG       0.098700
     95 H39         -1.9360     4.0950    -2.7340 hc         1 7LG       0.043700
     96 H40         -0.9960     2.0690    -4.8140 hc         1 7LG       0.038033
     97 H41         -1.4010     3.7470    -5.1590 hc         1 7LG       0.038033
     98 H42         -0.0410     3.3780    -4.1170 hc         1 7LG       0.038033
     99 H43         -4.1810     2.9990    -2.8850 hc         1 7LG       0.038033
    100 H44         -3.6880     3.6170    -4.4530 hc         1 7LG       0.038033
    101 H45         -3.5610     1.8940    -4.1090 hc         1 7LG       0.038033
    102 H46          0.5050     2.2250    -2.4360 hc         1 7LG       0.066700
    103 H47         -0.1130     3.1810    -1.1190 hc         1 7LG       0.066700
    104 H48         -0.5330     0.9820     0.1390 h1         1 7LG       0.072700
    105 H49          0.4990    -3.3340    -1.1730 hc         1 7LG       0.074367
    106 H50         -0.4940    -2.4220    -2.3220 hc         1 7LG       0.074367
    107 H51          1.2560    -2.2860    -2.3900 hc         1 7LG       0.074367
    108 H52          3.9910     2.7500     2.0760 h4         1 7LG       0.197000
    109 H53          4.2900    -0.4040    -1.1760 hn         1 7LG       0.324500
    110 H54          7.0270    -0.8220    -0.1440 h1         1 7LG       0.077700
    111 H55          5.7290    -1.6680    -2.7700 hc         1 7LG       0.052700
    112 H56          6.9600    -0.4300    -2.5670 hc         1 7LG       0.052700
    113 H57          7.3020    -3.4180    -2.0770 hc         1 7LG       0.022700
    114 H58          9.3860    -1.1850    -1.9150 hc         1 7LG       0.013700
    115 H59          8.7780    -2.1290    -0.5590 hc         1 7LG       0.013700
    116 H60          9.7280    -2.9090    -1.8120 hc         1 7LG       0.013700
    117 H62          4.9660    -2.9820    -0.7660 hc         1 7LG       0.061700
    118 H63          6.5310    -3.2100    -0.0120 hc         1 7LG       0.061700
    119 H64          6.9310    -2.4290     2.3310 ha         1 7LG       0.136500
    120 H65          5.9380    -1.9320     4.5350 ha         1 7LG       0.145500
    121 H66          2.0790    -1.5610     2.7040 ha         1 7LG       0.145500
    122 H67          3.0710    -2.0830     0.5200 ha         1 7LG       0.136500
@<TRIPOS>BOND
     1     1     2 1   
     2     1    58 1   
     3     1    59 1   
     4     1    60 1   
     5     2     3 1   
     6     2     7 1   
     7     3     4 1   
     8     3    61 1   
     9     3    62 1   
    10     4     5 1   
    11     4    63 1   
    12     4    64 1   
    13     5     6 1   
    14     5    65 1   
    15     5    66 1   
    16     6     7 1   
    17     6    67 1   
    18     6    68 1   
    19     7     8 1   
    20     7    69 1   
    21     8     9 2   
    22     8    10 1   
    23    10    11 1   
    24    10    70 1   
    25    11    12 1   
    26    11    16 1   
    27    11    71 1   
    28    12    13 1   
    29    12    14 1   
    30    12    72 1   
    31    13    73 1   
    32    13    74 1   
    33    13    75 1   
    34    14    15 1   
    35    14    76 1   
    36    14    77 1   
    37    15    78 1   
    38    15    79 1   
    39    15    80 1   
    40    16    17 2   
    41    16    18 1   
    42    18    19 1   
    43    18    25 1   
    44    19    20 1   
    45    19    81 1   
    46    19    82 1   
    47    20    21 1   
    48    20    83 1   
    49    20    84 1   
    50    21    22 1   
    51    21    85 1   
    52    21    86 1   
    53    22    23 1   
    54    22    87 1   
    55    22    88 1   
    56    23    24 1   
    57    23    89 1   
    58    23    90 1   
    59    24    91 1   
    60    24    92 1   
    61    24    93 1   
    62    25    26 1   
    63    25    29 1   
    64    25    94 1   
    65    26    27 1   
    66    26    28 1   
    67    26    95 1   
    68    27    96 1   
    69    27    97 1   
    70    27    98 1   
    71    28    99 1   
    72    28   100 1   
    73    28   101 1   
    74    29    30 1   
    75    29   102 1   
    76    29   103 1   
    77    30    31 1   
    78    30    35 1   
    79    30   104 1   
    80    31    32 1   
    81    32    33 2   
    82    32    34 1   
    83    34   105 1   
    84    34   106 1   
    85    34   107 1   
    86    35    36 2   
    87    35    37 1   
    88    36    39 1   
    89    37    38 1   
    90    38    39 2   
    91    38   108 1   
    92    39    40 1   
    93    40    41 2   
    94    40    42 1   
    95    42    43 1   
    96    42   109 1   
    97    43    44 1   
    98    43    50 1   
    99    43   110 1   
   100    44    45 1   
   101    44   111 1   
   102    44   112 1   
   103    45    46 1   
   104    45    47 1   
   105    45   113 1   
   106    46   114 1   
   107    46   115 1   
   108    46   116 1   
   109    47    48 1   
   110    47    49 1   
   111    50    51 1   
   112    50   117 1   
   113    50   118 1   
   114    51    52 ar  
   115    51    57 ar  
   116    52    53 ar  
   117    52   119 1   
   118    53    54 ar  
   119    53   120 1   
   120    54    55 1   
   121    54    56 ar  
   122    56    57 ar  
   123    56   121 1   
   124    57   122 1   
@<TRIPOS>SUBSTRUCTURE
     1 7LG         1 TEMP              0 ****  ****    0 ROOT
