@<TRIPOS>MOLECULE
7LG
  122   124     1     0     0
SMALL
No Charge or Current Charge


@<TRIPOS>ATOM
      1 CBI         -9.2310    -1.0630     1.4020 c3         1 7LG       0.142100
      2 NBE         -8.4080    -2.1080     0.7490 n3         1 7LG      -0.692600
      3 CBD         -9.2000    -3.3500     0.5170 c6         1 7LG       0.165800
      4 CBC         -8.3200    -4.5100    -0.0000 c6         1 7LG      -0.076400
      5 CBH         -7.5650    -4.0950    -1.2790 c6         1 7LG      -0.075400
      6 CBG         -6.7730    -2.7940    -1.0240 c6         1 7LG      -0.071400
      7 CBF         -7.7020    -1.6430    -0.5130 c6         1 7LG       0.105500
      8 CBJ         -6.9400    -0.2580    -0.4180 c          1 7LG       0.602100
      9 OBK         -7.5370     0.8090    -0.3230 o          1 7LG      -0.595100
     10 N           -5.5590    -0.2950    -0.4630 ns         1 7LG      -0.493900
     11 CA          -4.6530     0.8750    -0.3600 c3         1 7LG       0.036700
     12 CB          -4.2110     1.1170     1.1220 c3         1 7LG      -0.071700
     13 CG2         -5.3700     1.6630     1.9930 c3         1 7LG      -0.085100
     14 CG1         -3.5360    -0.1340     1.7540 c3         1 7LG      -0.079400
     15 CD1         -2.7960     0.1430     3.0800 c3         1 7LG      -0.087100
     16 C           -3.4380     0.6940    -1.3410 c          1 7LG       0.591100
     17 O           -3.2530    -0.4040    -1.8570 o          1 7LG      -0.611100
     18 NAA         -2.5300     1.7720    -1.6020 n          1 7LG      -0.406800
     19 CAL         -2.8460     3.1840    -1.2010 c3         1 7LG       0.099000
     20 CAM         -1.8970     3.8020    -0.1500 c3         1 7LG      -0.104400
     21 CAN         -2.5420     4.9580     0.6440 c3         1 7LG      -0.075400
     22 CAO         -1.5960     5.5510     1.7100 c3         1 7LG      -0.077400
     23 CAP         -2.2400     6.6990     2.5170 c3         1 7LG      -0.074400
     24 CAQ         -1.2980     7.2880     3.5840 c3         1 7LG      -0.089100
     25 CAB         -1.3230     1.5280    -2.4760 c3         1 7LG       0.104700
     26 CAJ         -1.2750     2.4380    -3.7530 c3         1 7LG      -0.069700
     27 CAS         -0.0760     2.1230    -4.6850 c3         1 7LG      -0.090100
     28 CAR         -2.5920     2.3510    -4.5700 c3         1 7LG      -0.090100
     29 CAC          0.0030     1.5160    -1.6580 c3         1 7LG      -0.087400
     30 CAD         -0.0170     0.5940    -0.4150 c3         1 7LG       0.155000
     31 OAK         -0.0580    -0.7670    -0.9080 os         1 7LG      -0.422100
     32 CCC         -0.2140    -1.7930    -0.0140 c          1 7LG       0.613100
     33 OCE         -0.3260    -1.6560     1.1960 o          1 7LG      -0.499000
     34 CCD         -0.2570    -3.1380    -0.7180 c3         1 7LG      -0.157100
     35 CAE          1.1900     0.8160     0.4840 cc         1 7LG       0.403700
     36 NAI          2.4050     0.3390     0.2350 nd         1 7LG      -0.619000
     37 SAF          1.0220     1.7730     1.9320 ss         1 7LG      -0.062400
     38 CAG          2.7090     1.4820     2.2410 cc         1 7LG      -0.191000
     39 CAH          3.2880     0.7080     1.2560 cd         1 7LG       0.230500
     40 CAT          4.7430     0.3250     1.3500 c          1 7LG       0.528600
     41 OBL          5.5020     0.6480     2.2590 o          1 7LG      -0.609100
     42 NBM          5.1460    -0.4640     0.2920 ns         1 7LG      -0.468900
     43 CBN          6.4580    -1.1000     0.1600 c3         1 7LG       0.105700
     44 CBP          7.4750    -0.1150    -0.4780 c3         1 7LG      -0.064400
     45 CBR          8.9420    -0.6270    -0.6050 c3         1 7LG      -0.194700
     46 CBS          9.5750    -0.9960     0.7610 c3         1 7LG      -0.058100
     47 CBT          9.8210     0.4000    -1.3610 c          1 7LG       0.719000
     48 OCB         10.3140     0.0590    -2.4260 o          1 7LG      -0.734000
     49 OCA          9.9850     1.5070    -0.8710 o          1 7LG      -0.734000
     50 CBO          6.3210    -2.4430    -0.6060 c3         1 7LG      -0.060100
     51 CBQ          5.1440    -3.3070    -0.1500 ca         1 7LG      -0.083300
     52 CBU          4.9650    -3.6180     1.2150 ca         1 7LG      -0.080000
     53 CBV          3.8730    -4.4010     1.6270 ca         1 7LG      -0.151500
     54 CBW          2.9610    -4.8850     0.6770 ca         1 7LG       0.149000
     55 FBZ          1.9130    -5.6380     1.0730 f          1 7LG      -0.197000
     56 CBX          3.1370    -4.5940    -0.6830 ca         1 7LG      -0.151500
     57 CBY          4.2240    -3.8040    -1.0970 ca         1 7LG      -0.080000
     58 H1          -9.7540    -1.4720     2.2770 h1         1 7LG       0.036033
     59 H2          -8.6070    -0.2330     1.7590 h1         1 7LG       0.036033
     60 H3          -9.9840    -0.6650     0.7090 h1         1 7LG       0.036033
     61 H5          -9.6840    -3.6720     1.4510 h1         1 7LG       0.031200
     62 H6         -10.0020    -3.1560    -0.2110 h1         1 7LG       0.031200
     63 H7          -7.6030    -4.8010     0.7790 hc         1 7LG       0.047200
     64 H8          -8.9440    -5.3910    -0.1990 hc         1 7LG       0.047200
     65 H9          -6.8840    -4.8980    -1.5930 hc         1 7LG       0.039700
     66 H10         -8.2780    -3.9440    -2.1010 hc         1 7LG       0.039700
     67 H11         -5.9800    -2.9940    -0.2890 hc         1 7LG       0.057200
     68 H12         -6.2780    -2.4930    -1.9570 hc         1 7LG       0.057200
     69 H13         -8.4600    -1.4760    -1.2920 h1         1 7LG       0.025700
     70 H14         -5.1320    -1.2050    -0.5880 hn         1 7LG       0.330500
     71 H15         -5.2090     1.7500    -0.7170 h1         1 7LG       0.092700
     72 H16         -3.4570     1.9060     1.1160 hc         1 7LG       0.053700
     73 H17         -6.1260     0.8900     2.1740 hc         1 7LG       0.036700
     74 H18         -5.0020     2.0140     2.9640 hc         1 7LG       0.036700
     75 H19         -5.8570     2.5130     1.5000 hc         1 7LG       0.036700
     76 H20         -4.2880    -0.9150     1.9250 hc         1 7LG       0.049700
     77 H21         -2.8130    -0.5510     1.0450 hc         1 7LG       0.049700
     78 H22         -2.2780    -0.7620     3.4200 hc         1 7LG       0.033700
     79 H23         -2.0470     0.9340     2.9500 hc         1 7LG       0.033700
     80 H24         -3.4930     0.4470     3.8690 hc         1 7LG       0.033700
     81 H25         -2.8510     3.8310    -2.0850 h1         1 7LG       0.051200
     82 H26         -3.8640     3.2460    -0.8080 h1         1 7LG       0.051200
     83 H27         -1.5700     3.0310     0.5570 hc         1 7LG       0.050200
     84 H28         -1.0010     4.1830    -0.6520 hc         1 7LG       0.050200
     85 H29         -2.8470     5.7490    -0.0530 hc         1 7LG       0.038200
     86 H30         -3.4530     4.5940     1.1360 hc         1 7LG       0.038200
     87 H31         -1.2880     4.7550     2.4000 hc         1 7LG       0.042200
     88 H32         -0.6860     5.9200     1.2200 hc         1 7LG       0.042200
     89 H33         -2.5460     7.4980     1.8310 hc         1 7LG       0.035200
     90 H34         -3.1500     6.3330     3.0080 hc         1 7LG       0.035200
     91 H35         -1.7970     8.0990     4.1280 hc         1 7LG       0.032367
     92 H36         -1.0020     6.5200     4.3080 hc         1 7LG       0.032367
     93 H37         -0.3910     7.6950     3.1190 hc         1 7LG       0.032367
     94 H38         -1.3970     0.5110    -2.8820 h1         1 7LG       0.098700
     95 H39         -1.1500     3.4790    -3.4320 hc         1 7LG       0.043700
     96 H40         -0.0570     1.0600    -4.9550 hc         1 7LG       0.038033
     97 H41         -0.1400     2.7080    -5.6100 hc         1 7LG       0.038033
     98 H42          0.8780     2.3800    -4.2110 hc         1 7LG       0.038033
     99 H43         -3.4620     2.6550    -3.9770 hc         1 7LG       0.038033
    100 H44         -2.5480     3.0080    -5.4470 hc         1 7LG       0.038033
    101 H45         -2.7630     1.3260    -4.9210 hc         1 7LG       0.038033
    102 H46          0.8270     1.1780    -2.2960 hc         1 7LG       0.066700
    103 H47          0.2650     2.5330    -1.3550 hc         1 7LG       0.066700
    104 H48         -0.9140     0.8080     0.1780 h1         1 7LG       0.072700
    105 H49         -0.3080    -3.9790    -0.0180 hc         1 7LG       0.074367
    106 H50         -1.1060    -3.1390    -1.4090 hc         1 7LG       0.074367
    107 H51          0.5980    -3.2120    -1.3990 hc         1 7LG       0.074367
    108 H52          3.1720     1.8910     3.1310 h4         1 7LG       0.179000
    109 H53          4.4260    -0.6850    -0.3880 hn         1 7LG       0.324500
    110 H54          6.8050    -1.3340     1.1750 h1         1 7LG       0.077700
    111 H55          7.1140     0.1610    -1.4770 hc         1 7LG       0.052700
    112 H56          7.4780     0.8110     0.1100 hc         1 7LG       0.052700
    113 H57          8.9280    -1.5410    -1.2100 hc         1 7LG       0.022700
    114 H58          9.5470    -0.1430     1.4500 hc         1 7LG       0.013700
    115 H59          9.0470    -1.8350     1.2280 hc         1 7LG       0.013700
    116 H60         10.6220    -1.2950     0.6270 hc         1 7LG       0.013700
    117 H62          6.2300    -2.2240    -1.6770 hc         1 7LG       0.061700
    118 H63          7.2490    -3.0160    -0.4930 hc         1 7LG       0.061700
    119 H64          5.6700    -3.2520     1.9580 ha         1 7LG       0.118500
    120 H65          3.7340    -4.6350     2.6800 ha         1 7LG       0.127500
    121 H66          2.4320    -4.9800    -1.4150 ha         1 7LG       0.127500
    122 H67          4.3500    -3.5800    -2.1540 ha         1 7LG       0.118500
@<TRIPOS>BOND
     1     1     2 1   
     2     1    58 1   
     3     1    59 1   
     4     1    60 1   
     5     2     3 1   
     6     2     7 1   
     7     3     4 1   
     8     3    61 1   
     9     3    62 1   
    10     4     5 1   
    11     4    63 1   
    12     4    64 1   
    13     5     6 1   
    14     5    65 1   
    15     5    66 1   
    16     6     7 1   
    17     6    67 1   
    18     6    68 1   
    19     7     8 1   
    20     7    69 1   
    21     8     9 2   
    22     8    10 1   
    23    10    11 1   
    24    10    70 1   
    25    11    12 1   
    26    11    16 1   
    27    11    71 1   
    28    12    13 1   
    29    12    14 1   
    30    12    72 1   
    31    13    73 1   
    32    13    74 1   
    33    13    75 1   
    34    14    15 1   
    35    14    76 1   
    36    14    77 1   
    37    15    78 1   
    38    15    79 1   
    39    15    80 1   
    40    16    17 2   
    41    16    18 1   
    42    18    19 1   
    43    18    25 1   
    44    19    20 1   
    45    19    81 1   
    46    19    82 1   
    47    20    21 1   
    48    20    83 1   
    49    20    84 1   
    50    21    22 1   
    51    21    85 1   
    52    21    86 1   
    53    22    23 1   
    54    22    87 1   
    55    22    88 1   
    56    23    24 1   
    57    23    89 1   
    58    23    90 1   
    59    24    91 1   
    60    24    92 1   
    61    24    93 1   
    62    25    26 1   
    63    25    29 1   
    64    25    94 1   
    65    26    27 1   
    66    26    28 1   
    67    26    95 1   
    68    27    96 1   
    69    27    97 1   
    70    27    98 1   
    71    28    99 1   
    72    28   100 1   
    73    28   101 1   
    74    29    30 1   
    75    29   102 1   
    76    29   103 1   
    77    30    31 1   
    78    30    35 1   
    79    30   104 1   
    80    31    32 1   
    81    32    33 2   
    82    32    34 1   
    83    34   105 1   
    84    34   106 1   
    85    34   107 1   
    86    35    36 2   
    87    35    37 1   
    88    36    39 1   
    89    37    38 1   
    90    38    39 2   
    91    38   108 1   
    92    39    40 1   
    93    40    41 2   
    94    40    42 1   
    95    42    43 1   
    96    42   109 1   
    97    43    44 1   
    98    43    50 1   
    99    43   110 1   
   100    44    45 1   
   101    44   111 1   
   102    44   112 1   
   103    45    46 1   
   104    45    47 1   
   105    45   113 1   
   106    46   114 1   
   107    46   115 1   
   108    46   116 1   
   109    47    48 1   
   110    47    49 1   
   111    50    51 1   
   112    50   117 1   
   113    50   118 1   
   114    51    52 ar  
   115    51    57 ar  
   116    52    53 ar  
   117    52   119 1   
   118    53    54 ar  
   119    53   120 1   
   120    54    55 1   
   121    54    56 ar  
   122    56    57 ar  
   123    56   121 1   
   124    57   122 1   
@<TRIPOS>SUBSTRUCTURE
     1 7LG         1 TEMP              0 ****  ****    0 ROOT
