@<TRIPOS>MOLECULE
7LH
   44    45     1     0     0
SMALL
abcg2


@<TRIPOS>ATOM
      1 CAX         -4.3990    -0.9810    -0.1810 ca         1 7LH      -0.117000
      2 CAV         -5.5110    -0.4730    -0.8360 ca         1 7LH       0.118100
      3 OAW         -6.1020    -1.2160    -1.7960 oh         1 7LH      -0.539100
      4 CAT         -5.9940     0.7950    -0.4890 ca         1 7LH       0.032100
      5 OAU         -7.0820     1.2310    -1.1700 oh         1 7LH      -0.564100
      6 CAS         -5.3590     1.5170     0.5080 ca         1 7LH      -0.157000
      7 CAR         -4.2470     0.9940     1.1580 ca         1 7LH      -0.107000
      8 CAQ         -3.7530    -0.2600     0.8210 ca         1 7LH      -0.064300
      9 CAP         -2.5200    -0.8080     1.4850 c3         1 7LH      -0.021100
     10 CAO         -1.2560    -0.2650     0.8280 c3         1 7LH      -0.142400
     11 CAM          0.0160    -0.7650     1.4620 c          1 7LH       0.606100
     12 OAN          0.0620    -1.4640     2.4430 o          1 7LH      -0.512000
     13 OAL          1.0750    -0.3030     0.8110 os         1 7LH      -0.416100
     14 CAK          2.3890    -0.7530     1.1610 c6         1 7LH       0.184300
     15 CAY          3.3600     0.4150     1.0980 c6         1 7LH      -0.071400
     16 CAD          3.6270     0.9500    -0.3130 c6         1 7LH       0.038000
     17 CAB          4.7900     1.9820    -0.2670 c          1 7LH       0.695000
     18 OAC          5.8860     1.6120     0.1760 o          1 7LH      -0.710000
     19 OAA          4.4910     3.1190    -0.7030 o          1 7LH      -0.710000
     20 OAE          2.4910     1.6050    -0.8230 oh         1 7LH      -0.700000
     21 CAF          4.0190    -0.2160    -1.2280 c6         1 7LH      -0.095400
     22 CAG          2.9750    -1.3240    -1.2180 c6         1 7LH       0.131300
     23 OAH          3.3660    -2.4280    -2.0170 oh         1 7LH      -0.696000
     24 CAI          2.7960    -1.8620     0.1970 c6         1 7LH       0.158300
     25 OAJ          1.8360    -2.8850     0.2590 oh         1 7LH      -0.668000
     26 H1          -4.0370    -1.9640    -0.4610 ha         1 7LH       0.132000
     27 H2          -6.8630    -0.7500    -2.1620 ho         1 7LH       0.476000
     28 H3          -7.3260     2.1200    -0.8910 ho         1 7LH       0.469000
     29 H4          -5.7340     2.4960     0.7810 ha         1 7LH       0.108000
     30 H5          -3.7680     1.5780     1.9350 ha         1 7LH       0.119000
     31 H6          -2.5230    -0.5480     2.5460 hc         1 7LH       0.059200
     32 H7          -2.5240    -1.8990     1.4300 hc         1 7LH       0.059200
     33 H8          -1.2390    -0.5200    -0.2360 hc         1 7LH       0.075700
     34 H9          -1.2470     0.8290     0.8660 hc         1 7LH       0.075700
     35 H10          2.3770    -1.1510     2.1780 h1         1 7LH       0.060700
     36 H11          3.0060     1.2200     1.7480 hc         1 7LH       0.060700
     37 H12          4.3040     0.0660     1.5240 hc         1 7LH       0.060700
     38 H14          2.8490     2.4960    -1.0100 ho         1 7LH       0.476000
     39 H15          4.1580     0.1530    -2.2490 hc         1 7LH       0.051700
     40 H16          4.9790    -0.6270    -0.9030 hc         1 7LH       0.051700
     41 H17          2.0140    -0.9280    -1.5680 h1         1 7LH       0.057700
     42 H18          3.2660    -2.1840    -2.9420 ho         1 7LH       0.440000
     43 H19          3.7790    -2.2270     0.5420 h1         1 7LH       0.043700
     44 H20          2.0320    -3.5100    -0.4470 ho         1 7LH       0.450000
@<TRIPOS>BOND
     1     1     2 ar  
     2     1     8 ar  
     3     1    26 1   
     4     2     3 1   
     5     2     4 ar  
     6     3    27 1   
     7     4     5 1   
     8     4     6 ar  
     9     5    28 1   
    10     6     7 ar  
    11     6    29 1   
    12     7     8 ar  
    13     7    30 1   
    14     8     9 1   
    15     9    10 1   
    16     9    31 1   
    17     9    32 1   
    18    10    11 1   
    19    10    33 1   
    20    10    34 1   
    21    11    12 2   
    22    11    13 1   
    23    13    14 1   
    24    14    15 1   
    25    14    24 1   
    26    14    35 1   
    27    15    16 1   
    28    15    36 1   
    29    15    37 1   
    30    16    17 1   
    31    16    20 1   
    32    16    21 1   
    33    17    18 1   
    34    17    19 1   
    35    20    38 1   
    36    21    22 1   
    37    21    39 1   
    38    21    40 1   
    39    22    23 1   
    40    22    24 1   
    41    22    41 1   
    42    23    42 1   
    43    24    25 1   
    44    24    43 1   
    45    25    44 1   
@<TRIPOS>SUBSTRUCTURE
     1 7LH         1 TEMP              0 ****  ****    0 ROOT
