@<TRIPOS>MOLECULE
7LH
   44    45     1     0     0
SMALL
No Charge or Current Charge


@<TRIPOS>ATOM
      1 CAX         -3.5920     0.1750    -0.8480 ca         1 7LH      -0.117000
      2 CAV         -4.8440     0.6090    -1.3130 ca         1 7LH       0.118100
      3 OAW         -4.9890     1.0460    -2.5960 oh         1 7LH      -0.539100
      4 CAT         -5.9630     0.5980    -0.4560 ca         1 7LH       0.032100
      5 OAU         -7.1830     1.0230    -0.9130 oh         1 7LH      -0.564100
      6 CAS         -5.8230     0.1520     0.8690 ca         1 7LH      -0.157000
      7 CAR         -4.5680    -0.2830     1.3340 ca         1 7LH      -0.107000
      8 CAQ         -3.4480    -0.2760     0.4790 ca         1 7LH      -0.064300
      9 CAP         -2.0910    -0.7430     0.9880 c3         1 7LH      -0.021100
     10 CAO         -1.2690     0.4170     1.5910 c3         1 7LH      -0.142400
     11 CAM          0.0910    -0.0790     2.0820 c          1 7LH       0.606100
     12 OAN          0.2720    -0.5580     3.1940 o          1 7LH      -0.512000
     13 OAL          1.0820     0.1930     1.1770 os         1 7LH      -0.416100
     14 CAK          2.4380    -0.2740     1.3760 c6         1 7LH       0.184300
     15 CAY          3.4600     0.7060     0.7270 c6         1 7LH      -0.071400
     16 CAD          3.5240     0.6800    -0.8440 c6         1 7LH       0.038000
     17 CAB          4.7720     1.5180    -1.3810 c          1 7LH       0.695000
     18 OAC          5.2280     2.3930    -0.6570 o          1 7LH      -0.710000
     19 OAA          4.8630     1.6120    -2.5990 o          1 7LH      -0.710000
     20 OAE          2.2960     1.2090    -1.4100 oh         1 7LH      -0.700000
     21 CAF          3.6960    -0.8070    -1.2980 c6         1 7LH      -0.095400
     22 CAG          2.6140    -1.7500    -0.7130 c6         1 7LH       0.131300
     23 OAH          2.8200    -3.0920    -1.1920 oh         1 7LH      -0.696000
     24 CAI          2.6580    -1.7280     0.8420 c6         1 7LH       0.158300
     25 OAJ          1.6970    -2.6720     1.3470 oh         1 7LH      -0.668000
     26 H1          -2.7350     0.1900    -1.5180 ha         1 7LH       0.132000
     27 H2          -5.9370     1.2940    -2.6870 ho         1 7LH       0.476000
     28 H3          -7.8390     0.9460    -0.1840 ho         1 7LH       0.469000
     29 H4          -6.6780     0.1390     1.5420 ha         1 7LH       0.108000
     30 H5          -4.4670    -0.6260     2.3610 ha         1 7LH       0.119000
     31 H6          -2.2210    -1.5260     1.7450 hc         1 7LH       0.059200
     32 H7          -1.5190    -1.2030     0.1710 hc         1 7LH       0.059200
     33 H8          -1.1210     1.1590     0.7980 hc         1 7LH       0.075700
     34 H9          -1.8230     0.8510     2.4310 hc         1 7LH       0.075700
     35 H10          2.6460    -0.2700     2.4560 h1         1 7LH       0.060700
     36 H11          3.2440     1.7250     1.0750 hc         1 7LH       0.060700
     37 H12          4.4550     0.4640     1.1260 hc         1 7LH       0.060700
     38 H14          2.5460     1.5730    -2.2910 ho         1 7LH       0.476000
     39 H15          3.6730    -0.8620    -2.3950 hc         1 7LH       0.051700
     40 H16          4.6910    -1.1660    -0.9990 hc         1 7LH       0.051700
     41 H17          1.6250    -1.3890    -1.0370 h1         1 7LH       0.057700
     42 H18          2.7910    -3.0510    -2.1740 ho         1 7LH       0.440000
     43 H19          3.6660    -2.0430     1.1510 h1         1 7LH       0.043700
     44 H20          1.7230    -3.4060     0.6910 ho         1 7LH       0.450000
@<TRIPOS>BOND
     1     1     2 ar  
     2     1     8 ar  
     3     1    26 1   
     4     2     3 1   
     5     2     4 ar  
     6     3    27 1   
     7     4     5 1   
     8     4     6 ar  
     9     5    28 1   
    10     6     7 ar  
    11     6    29 1   
    12     7     8 ar  
    13     7    30 1   
    14     8     9 1   
    15     9    10 1   
    16     9    31 1   
    17     9    32 1   
    18    10    11 1   
    19    10    33 1   
    20    10    34 1   
    21    11    12 2   
    22    11    13 1   
    23    13    14 1   
    24    14    15 1   
    25    14    24 1   
    26    14    35 1   
    27    15    16 1   
    28    15    36 1   
    29    15    37 1   
    30    16    17 1   
    31    16    20 1   
    32    16    21 1   
    33    17    18 1   
    34    17    19 1   
    35    20    38 1   
    36    21    22 1   
    37    21    39 1   
    38    21    40 1   
    39    22    23 1   
    40    22    24 1   
    41    22    41 1   
    42    23    42 1   
    43    24    25 1   
    44    24    43 1   
    45    25    44 1   
@<TRIPOS>SUBSTRUCTURE
     1 7LH         1 TEMP              0 ****  ****    0 ROOT
