@<TRIPOS>MOLECULE
7LI
   48    50     1     0     0
SMALL
No Charge or Current Charge


@<TRIPOS>ATOM
      1 C            3.8130     3.2870    -1.2600 c3         1 7LI      -0.108100
      2 N            1.4670    -0.6970     0.1240 nh         1 7LI      -0.828400
      3 O            3.2380     1.5530     0.3340 os         1 7LI      -0.356100
      4 S           -3.2940     0.8770    -0.7840 ss         1 7LI      -0.187200
      5 C1           4.1530     2.6400     0.1010 c3         1 7LI       0.180300
      6 N1           3.7070    -3.5720     1.3810 n8         1 7LI      -0.987200
      7 O1          -3.0240    -2.8410     0.2900 o          1 7LI      -0.493000
      8 C2           5.5670     2.0300     0.1150 c3         1 7LI      -0.108100
      9 N2          -4.3980    -1.4370    -0.8740 ns         1 7LI      -0.480500
     10 O2          -5.6210     0.1340    -2.0130 o          1 7LI      -0.472000
     11 C3           1.8870     1.7180     0.6200 ca         1 7LI       0.127100
     12 C4           1.3700     2.9740     1.0140 ca         1 7LI      -0.180000
     13 C5           0.0030     3.1250     1.2880 ca         1 7LI      -0.080000
     14 C6          -0.8630     2.0300     1.1700 ca         1 7LI      -0.119000
     15 C7          -0.3740     0.7690     0.7790 ca         1 7LI      -0.053800
     16 C8           1.0090     0.5950     0.5170 ca         1 7LI       0.262000
     17 C9           1.3280    -1.1130    -1.2950 c6         1 7LI       0.207800
     18 C10          1.2100    -2.6540    -1.4070 c6         1 7LI      -0.076400
     19 C11          2.4040    -3.3680    -0.7230 c6         1 7LI      -0.110400
     20 C12          2.5400    -2.9020     0.7480 c6         1 7LI       0.144500
     21 C13          2.6200    -1.3380     0.8250 c6         1 7LI       0.218800
     22 C14         -1.3070    -0.3920     0.6800 ce         1 7LI      -0.002200
     23 C15         -2.5240    -0.4880     0.0380 cd         1 7LI      -0.141600
     24 C16         -3.2980    -1.7310    -0.1350 c          1 7LI       0.586200
     25 C17         -4.6540    -0.1860    -1.3440 c          1 7LI       0.593600
     26 H            4.5410     4.0690    -1.5030 hc         1 7LI       0.047867
     27 HA           3.8330     2.5390    -2.0620 hc         1 7LI       0.047867
     28 HB           2.8190     3.7490    -1.2440 hc         1 7LI       0.047867
     29 H1           4.1000     3.3890     0.9020 h1         1 7LI       0.042700
     30 HN1          3.5980    -4.5880     1.2740 hn         1 7LI       0.390500
     31 HN1A         4.5450    -3.3640     0.8260 hn         1 7LI       0.390500
     32 H2           6.3220     2.8050    -0.0630 hc         1 7LI       0.047867
     33 H2A          5.7760     1.5690     1.0880 hc         1 7LI       0.047867
     34 H2B          5.6700     1.2630    -0.6620 hc         1 7LI       0.047867
     35 HN2         -5.0480    -2.1770    -1.0900 hn         1 7LI       0.349500
     36 H4           2.0110     3.8430     1.1190 ha         1 7LI       0.120000
     37 H5          -0.3860     4.0930     1.5950 ha         1 7LI       0.118000
     38 H6          -1.9180     2.1600     1.4000 ha         1 7LI       0.130000
     39 H9           0.4340    -0.6550    -1.7430 h1         1 7LI       0.036200
     40 H9A          2.1990    -0.7700    -1.8740 h1         1 7LI       0.036200
     41 H10          0.2690    -2.9820    -0.9450 hc         1 7LI       0.049200
     42 H10A         1.1560    -2.9440    -2.4650 hc         1 7LI       0.049200
     43 H11          2.2590    -4.4560    -0.7680 hc         1 7LI       0.037200
     44 H11A         3.3270    -3.1460    -1.2770 hc         1 7LI       0.037200
     45 H12          1.6390    -3.2170     1.2980 h1         1 7LI       0.073700
     46 H13          3.5670    -1.0070     0.3730 h1         1 7LI       0.046200
     47 H13A         2.6360    -1.0340     1.8830 h1         1 7LI       0.046200
     48 H14         -0.9140    -1.3270     1.0840 ha         1 7LI       0.224000
@<TRIPOS>BOND
     1     1     5 1   
     2     1    26 1   
     3     1    27 1   
     4     1    28 1   
     5     2    16 1   
     6     2    17 1   
     7     2    21 1   
     8     3     5 1   
     9     3    11 1   
    10     4    23 1   
    11     4    25 1   
    12     5     8 1   
    13     5    29 1   
    14     6    20 1   
    15     6    30 1   
    16     6    31 1   
    17     7    24 2   
    18     8    32 1   
    19     8    33 1   
    20     8    34 1   
    21     9    24 1   
    22     9    25 1   
    23     9    35 1   
    24    10    25 2   
    25    11    12 ar  
    26    11    16 ar  
    27    12    13 ar  
    28    12    36 1   
    29    13    14 ar  
    30    13    37 1   
    31    14    15 ar  
    32    14    38 1   
    33    15    16 ar  
    34    15    22 1   
    35    17    18 1   
    36    17    39 1   
    37    17    40 1   
    38    18    19 1   
    39    18    41 1   
    40    18    42 1   
    41    19    20 1   
    42    19    43 1   
    43    19    44 1   
    44    20    21 1   
    45    20    45 1   
    46    21    46 1   
    47    21    47 1   
    48    22    23 2   
    49    22    48 1   
    50    23    24 1   
@<TRIPOS>SUBSTRUCTURE
     1 7LI         1 TEMP              0 ****  ****    0 ROOT
