@<TRIPOS>MOLECULE
7LI
   48    50     1     0     0
SMALL
abcg2


@<TRIPOS>ATOM
      1 C            3.9340     3.2310    -1.2080 c3         1 7LI      -0.108100
      2 N            1.4440    -0.7110     0.0490 nh         1 7LI      -0.828400
      3 O            3.1530     1.4410     0.2330 os         1 7LI      -0.356100
      4 S           -3.4600     0.8460    -0.5880 ss         1 7LI      -0.187200
      5 C1           4.1040     2.5020     0.1150 c3         1 7LI       0.180300
      6 N1           3.4900    -3.4420     1.4870 n8         1 7LI      -0.987200
      7 O1          -2.8500    -2.8140     0.4090 o          1 7LI      -0.493000
      8 C2           5.4680     1.8550     0.2410 c3         1 7LI      -0.108100
      9 N2          -4.4690    -1.5280    -0.5650 ns         1 7LI      -0.480500
     10 O2          -5.8210     0.0810    -1.4830 o          1 7LI      -0.472000
     11 C3           1.8630     1.6840     0.5000 ca         1 7LI       0.127100
     12 C4           1.3490     2.9320     0.8470 ca         1 7LI      -0.180000
     13 C5          -0.0120     3.0880     1.0790 ca         1 7LI      -0.080000
     14 C6          -0.8770     2.0190     0.9570 ca         1 7LI      -0.119000
     15 C7          -0.3730     0.7580     0.6230 ca         1 7LI      -0.053800
     16 C8           1.0010     0.5760     0.4070 ca         1 7LI       0.262000
     17 C9           1.4800    -1.0040    -1.3750 c6         1 7LI       0.207800
     18 C10          1.3980    -2.5060    -1.5960 c6         1 7LI      -0.076400
     19 C11          2.4810    -3.2280    -0.8020 c6         1 7LI      -0.110400
     20 C12          2.4370    -2.8450     0.6770 c6         1 7LI       0.144500
     21 C13          2.5130    -1.3270     0.8120 c6         1 7LI       0.218800
     22 C14         -1.2320    -0.4120     0.5170 ce         1 7LI      -0.002200
     23 C15         -2.4950    -0.4630     0.0780 cd         1 7LI      -0.141600
     24 C16         -3.2420    -1.7400     0.0190 c          1 7LI       0.586200
     25 C17         -4.7950    -0.2620    -0.9640 c          1 7LI       0.593600
     26 H            4.6780     4.0230    -1.2930 hc         1 7LI       0.047867
     27 HA           4.0720     2.5440    -2.0450 hc         1 7LI       0.047867
     28 HB           2.9520     3.6930    -1.3070 hc         1 7LI       0.047867
     29 H1           3.9760     3.2060     0.9450 h1         1 7LI       0.042700
     30 HN1          3.4370    -4.4500     1.4110 hn         1 7LI       0.390500
     31 HN1A         4.3920    -3.1910     1.0960 hn         1 7LI       0.390500
     32 H2           6.2460     2.6150     0.1650 hc         1 7LI       0.047867
     33 H2A          5.5800     1.3550     1.2030 hc         1 7LI       0.047867
     34 H2B          5.6320     1.1220    -0.5500 hc         1 7LI       0.047867
     35 HN2         -5.1230    -2.2890    -0.7040 hn         1 7LI       0.349500
     36 H4           1.9930     3.7970     0.9300 ha         1 7LI       0.120000
     37 H5          -0.3910     4.0620     1.3570 ha         1 7LI       0.118000
     38 H6          -1.9270     2.1590     1.1770 ha         1 7LI       0.130000
     39 H9           0.6350    -0.5090    -1.8580 h1         1 7LI       0.036200
     40 H9A          2.3970    -0.6100    -1.8410 h1         1 7LI       0.036200
     41 H10          0.4110    -2.8600    -1.2800 hc         1 7LI       0.049200
     42 H10A         1.4910    -2.7250    -2.6620 hc         1 7LI       0.049200
     43 H11          2.3820    -4.3110    -0.9130 hc         1 7LI       0.037200
     44 H11A         3.4670    -2.9570    -1.2020 hc         1 7LI       0.037200
     45 H12          1.4760    -3.1720     1.0920 h1         1 7LI       0.073700
     46 H13          3.5110    -1.0000     0.4840 h1         1 7LI       0.046200
     47 H13A         2.4060    -1.0470     1.8620 h1         1 7LI       0.046200
     48 H14         -0.7840    -1.3580     0.7980 ha         1 7LI       0.224000
@<TRIPOS>BOND
     1     1     5 1   
     2     1    26 1   
     3     1    27 1   
     4     1    28 1   
     5     2    16 1   
     6     2    17 1   
     7     2    21 1   
     8     3     5 1   
     9     3    11 1   
    10     4    23 1   
    11     4    25 1   
    12     5     8 1   
    13     5    29 1   
    14     6    20 1   
    15     6    30 1   
    16     6    31 1   
    17     7    24 2   
    18     8    32 1   
    19     8    33 1   
    20     8    34 1   
    21     9    24 1   
    22     9    25 1   
    23     9    35 1   
    24    10    25 2   
    25    11    12 ar  
    26    11    16 ar  
    27    12    13 ar  
    28    12    36 1   
    29    13    14 ar  
    30    13    37 1   
    31    14    15 ar  
    32    14    38 1   
    33    15    16 ar  
    34    15    22 1   
    35    17    18 1   
    36    17    39 1   
    37    17    40 1   
    38    18    19 1   
    39    18    41 1   
    40    18    42 1   
    41    19    20 1   
    42    19    43 1   
    43    19    44 1   
    44    20    21 1   
    45    20    45 1   
    46    21    46 1   
    47    21    47 1   
    48    22    23 2   
    49    22    48 1   
    50    23    24 1   
@<TRIPOS>SUBSTRUCTURE
     1 7LI         1 TEMP              0 ****  ****    0 ROOT
