@<TRIPOS>MOLECULE
7LK
   43    46     1     0     0
SMALL
No Charge or Current Charge


@<TRIPOS>ATOM
      1 CAA          6.0220    -0.0840     0.2570 ca         1 7LK      -0.152000
      2 CAB          5.8960     1.2650    -0.1340 ca         1 7LK       0.345900
      3 CAD          4.8610    -0.8650     0.4190 ca         1 7LK       0.056000
      4 CAF          1.4210     0.3310    -0.1030 cc         1 7LK       0.037700
      5 CAG          2.2810    -0.6940     0.2390 cd         1 7LK      -0.232200
      6 CAH          3.6440    -0.2160     0.1670 ca         1 7LK      -0.096800
      7 CAI          3.5900     1.1120    -0.2140 ca         1 7LK       0.365500
      8 CAJ          4.9270    -2.2460     0.8180 cg         1 7LK       0.328000
      9 CAL         -0.0380     0.2100    -0.0730 ca         1 7LK      -0.098800
     10 CAM         -0.8450     1.2880     0.3410 ca         1 7LK      -0.052500
     11 CAN         -2.2450     1.1630     0.3710 ca         1 7LK      -0.177500
     12 CAO         -2.8680    -0.0410    -0.0130 ca         1 7LK       0.326000
     13 CAP         -2.0600    -1.1180    -0.4180 ca         1 7LK      -0.177500
     14 CAQ         -0.6600    -0.9980    -0.4470 ca         1 7LK      -0.052500
     15 CAS         -5.1250     0.6300     0.9410 c6         1 7LK       0.164300
     16 CAT         -6.5170    -0.0280     1.2200 c6         1 7LK       0.140800
     17 CAV         -6.4000    -1.2700    -0.8930 c6         1 7LK       0.140800
     18 CAW         -5.0050    -0.6390    -1.2180 c6         1 7LK       0.164300
     19 NAC          4.7010     1.8660    -0.3690 nb         1 7LK      -0.669000
     20 NAE          2.2440     1.4400    -0.3780 na         1 7LK      -0.183400
     21 NAK          4.9910    -3.3660     1.1430 n1         1 7LK      -0.449000
     22 NAR         -4.2760    -0.1840     0.0110 nh         1 7LK      -0.791400
     23 NAU         -7.2450    -0.3910    -0.0310 n7         1 7LK      -0.838400
     24 H1           7.0080    -0.5050     0.4300 ha         1 7LK       0.132000
     25 H2           6.7820     1.8860    -0.2640 h4         1 7LK       0.024100
     26 H3           1.9720    -1.6890     0.5470 ha         1 7LK       0.217000
     27 H4          -0.3920     2.2240     0.6580 ha         1 7LK       0.116000
     28 H5          -2.8410     2.0130     0.6870 ha         1 7LK       0.115500
     29 H6          -2.5170    -2.0600    -0.7030 ha         1 7LK       0.115500
     30 H7          -0.0610    -1.8450    -0.7720 ha         1 7LK       0.116000
     31 H8          -5.2860     1.6320     0.5150 h1         1 7LK       0.043450
     32 H9          -4.6100     0.7640     1.9050 h1         1 7LK       0.043450
     33 H10         -6.3610    -0.9350     1.8240 h1         1 7LK       0.063700
     34 H11         -7.1290     0.6600     1.8220 h1         1 7LK       0.063700
     35 H12         -6.9260    -1.4880    -1.8340 h1         1 7LK       0.063700
     36 H13         -6.2390    -2.2310    -0.3820 h1         1 7LK       0.063700
     37 H14         -4.4140    -1.3820    -1.7720 h1         1 7LK       0.043450
     38 H15         -5.1540     0.2180    -1.8920 h1         1 7LK       0.043450
     39 H16          1.7260     3.4570    -0.0300 h1         1 7LK       0.057033
     40 H17          2.5960     3.1590    -1.5640 h1         1 7LK       0.057033
     41 H18          0.8850     2.6880    -1.4110 h1         1 7LK       0.057033
     42 H19         -7.4300     0.4760    -0.5510 hn         1 7LK       0.404000
     43 CAX          1.8380     2.7660    -0.8750 c3         1 7LK       0.062900
@<TRIPOS>BOND
     1     1     2 ar  
     2     1     3 ar  
     3     1    24 1   
     4     2    19 ar  
     5     2    25 1   
     6     3     6 ar  
     7     3     8 1   
     8     4     5 2   
     9     4     9 1   
    10     4    20 1   
    11     5     6 1   
    12     5    26 1   
    13     6     7 ar  
    14     7    19 ar  
    15     7    20 1   
    16     8    21 3   
    17     9    10 ar  
    18     9    14 ar  
    19    10    11 ar  
    20    10    27 1   
    21    11    12 ar  
    22    11    28 1   
    23    12    13 ar  
    24    12    22 1   
    25    13    14 ar  
    26    13    29 1   
    27    14    30 1   
    28    15    16 1   
    29    15    22 1   
    30    15    31 1   
    31    15    32 1   
    32    16    23 1   
    33    16    33 1   
    34    16    34 1   
    35    17    18 1   
    36    17    23 1   
    37    17    35 1   
    38    17    36 1   
    39    18    22 1   
    40    18    37 1   
    41    18    38 1   
    42    20    43 1   
    43    23    42 1   
    44    39    43 1   
    45    40    43 1   
    46    41    43 1   
@<TRIPOS>SUBSTRUCTURE
     1 7LK         1 TEMP              0 ****  ****    0 ROOT
