@<TRIPOS>MOLECULE
7LK
   43    46     1     0     0
SMALL
bcc


@<TRIPOS>ATOM
      1 CAA          5.9580     0.0620     0.1400 ca         1 7LK      -0.235300
      2 CAB          5.6870     1.3920    -0.1740 ca         1 7LK       0.411200
      3 CAD          4.9000    -0.8250     0.3110 ca         1 7LK       0.056000
      4 CAF          1.4260     0.1770    -0.0080 cc         1 7LK       0.037700
      5 CAG          2.2880    -0.8680     0.2430 cd         1 7LK      -0.182200
      6 CAH          3.5970    -0.3450     0.1630 ca         1 7LK      -0.162100
      7 CAI          3.4740     1.0330    -0.1450 ca         1 7LK       0.430800
      8 CAJ          5.1350    -2.1950     0.6290 cg         1 7LK       0.238800
      9 CAL         -0.0320     0.1250    -0.0200 ca         1 7LK      -0.098800
     10 CAM         -0.8290     1.1180     0.5460 ca         1 7LK      -0.070500
     11 CAN         -2.2090     1.0200     0.5600 ca         1 7LK      -0.195500
     12 CAO         -2.8710    -0.0940     0.0170 ca         1 7LK       0.187600
     13 CAP         -2.0590    -1.0950    -0.5480 ca         1 7LK      -0.195500
     14 CAQ         -0.6850    -0.9850    -0.5620 ca         1 7LK      -0.070500
     15 CAS         -5.0260     0.8230     0.6930 c6         1 7LK       0.164300
     16 CAT         -6.4340     0.3390     1.0170 c6         1 7LK       0.140800
     17 CAV         -6.3350    -1.2800    -0.7110 c6         1 7LK       0.140800
     18 CAW         -4.9260    -0.8350    -1.0790 c6         1 7LK       0.164300
     19 NAC          4.4620     1.8860    -0.3150 nb         1 7LK      -0.669000
     20 NAE          2.1460     1.3270    -0.2470 na         1 7LK      -0.154100
     21 NAK          5.3110    -3.3040     0.8870 n1         1 7LK      -0.359800
     22 NAR         -4.2470    -0.2280     0.0610 nh         1 7LK      -0.653000
     23 NAU         -7.1410    -0.2330    -0.1120 n7         1 7LK      -0.783200
     24 H1           6.9810    -0.2680     0.2460 ha         1 7LK       0.150000
     25 H2           6.5080     2.0850    -0.3130 h4         1 7LK       0.024100
     26 H3           1.9960    -1.8750     0.4940 ha         1 7LK       0.167000
     27 H4          -0.3790     1.9880     1.0060 ha         1 7LK       0.134000
     28 H5          -2.7610     1.8360     1.0030 ha         1 7LK       0.133500
     29 H6          -2.4970    -1.9870    -0.9720 ha         1 7LK       0.133500
     30 H7          -0.1070    -1.7810    -1.0140 ha         1 7LK       0.134000
     31 H8          -5.0770     1.7200     0.0560 h1         1 7LK       0.043450
     32 H9          -4.5510     1.1160     1.6300 h1         1 7LK       0.043450
     33 H10         -6.3720    -0.4220     1.8010 h1         1 7LK       0.063700
     34 H11         -7.0070     1.1740     1.4230 h1         1 7LK       0.063700
     35 H12         -6.8300    -1.6550    -1.6070 h1         1 7LK       0.063700
     36 H13         -6.2730    -2.1120    -0.0030 h1         1 7LK       0.063700
     37 H14         -4.3750    -1.7050    -1.4300 h1         1 7LK       0.043450
     38 H15         -4.9720    -0.1210    -1.9150 h1         1 7LK       0.043450
     39 H16          1.3460     3.2260     0.1960 h1         1 7LK       0.057033
     40 H17          2.4180     3.1420    -1.2040 h1         1 7LK       0.057033
     41 H18          0.7810     2.4890    -1.3140 h1         1 7LK       0.057033
     42 H19         -7.3140     0.4910    -0.8000 hn         1 7LK       0.348800
     43 CAX          1.6380     2.6170    -0.6580 c3         1 7LK       0.033600
@<TRIPOS>BOND
     1     1     2 ar  
     2     1     3 ar  
     3     1    24 1   
     4     2    19 ar  
     5     2    25 1   
     6     3     6 ar  
     7     3     8 1   
     8     4     5 2   
     9     4     9 1   
    10     4    20 1   
    11     5     6 1   
    12     5    26 1   
    13     6     7 ar  
    14     7    19 ar  
    15     7    20 1   
    16     8    21 3   
    17     9    10 ar  
    18     9    14 ar  
    19    10    11 ar  
    20    10    27 1   
    21    11    12 ar  
    22    11    28 1   
    23    12    13 ar  
    24    12    22 1   
    25    13    14 ar  
    26    13    29 1   
    27    14    30 1   
    28    15    16 1   
    29    15    22 1   
    30    15    31 1   
    31    15    32 1   
    32    16    23 1   
    33    16    33 1   
    34    16    34 1   
    35    17    18 1   
    36    17    23 1   
    37    17    35 1   
    38    17    36 1   
    39    18    22 1   
    40    18    37 1   
    41    18    38 1   
    42    20    43 1   
    43    23    42 1   
    44    39    43 1   
    45    40    43 1   
    46    41    43 1   
@<TRIPOS>SUBSTRUCTURE
     1 7LK         1 TEMP              0 ****  ****    0 ROOT
