@<TRIPOS>MOLECULE
7LL
   37    39     1     0     0
SMALL
abcg2


@<TRIPOS>ATOM
      1 C1          -3.0130     0.0570    -0.2330 ca         1 7LL      -0.276600
      2 O1          -2.6520    -2.2680    -0.4840 o          1 7LL      -0.598100
      3 C2          -2.6210     1.2430     0.4000 ca         1 7LL      -0.038000
      4 O2           0.5580    -0.1330     2.4560 oh         1 7LL      -0.528100
      5 C3          -3.4110     2.3720     0.3620 ca         1 7LL      -0.171000
      6 C4          -4.6250     2.3290    -0.3220 ca         1 7LL      -0.042000
      7 C5          -5.0510     1.1650    -0.9300 ca         1 7LL      -0.171000
      8 C6          -2.1780    -1.1620    -0.2330 c          1 7LL       0.646700
      9 C           -4.2670     0.0110    -0.8740 ca         1 7LL       0.220100
     10 O           -4.7430    -1.0960    -1.4450 oh         1 7LL      -0.544100
     11 N           -0.8640    -0.9890     0.0410 ns         1 7LL      -0.256900
     12 N1          -0.0520    -2.0560     0.1290 n2         1 7LL      -0.400300
     13 C7           1.1840    -1.8660     0.3630 ce         1 7LL       0.389800
     14 C8           1.8950    -0.5920     0.5910 ca         1 7LL      -0.222900
     15 C9           1.5790     0.2230     1.6600 ca         1 7LL       0.150100
     16 C10          2.3240     1.3970     1.9170 ca         1 7LL      -0.197000
     17 C11          3.3750     1.7330     1.1160 ca         1 7LL      -0.041000
     18 C12          3.7410     0.9260     0.0140 ca         1 7LL      -0.073000
     19 C13          2.9930    -0.2490    -0.2510 ca         1 7LL       0.019000
     20 C17          4.8240     1.2710    -0.8230 ca         1 7LL      -0.085000
     21 C16          5.1630     0.4830    -1.8890 ca         1 7LL      -0.115000
     22 C15          4.4200    -0.6820    -2.1590 ca         1 7LL      -0.089000
     23 C14          3.3600    -1.0380    -1.3660 ca         1 7LL      -0.112000
     24 H1          -1.6970     1.2820     0.9650 ha         1 7LL       0.107000
     25 H2           0.4420     0.5030     3.1710 ho         1 7LL       0.471000
     26 H3          -3.0940     3.2750     0.8650 ha         1 7LL       0.117000
     27 H4          -5.2510     3.2100    -0.3690 ha         1 7LL       0.116000
     28 H5          -6.0030     1.1290    -1.4450 ha         1 7LL       0.134000
     29 H6          -4.1280    -1.8300    -1.2260 ho         1 7LL       0.518000
     30 H7          -0.4740    -0.0540     0.0570 hn         1 7LL       0.321500
     31 H8           1.7770    -2.7750     0.3810 h4         1 7LL       0.041800
     32 H9           2.0580     2.0250     2.7590 ha         1 7LL       0.118000
     33 H10          3.9400     2.6330     1.3240 ha         1 7LL       0.118000
     34 H11          5.3820     2.1750    -0.6090 ha         1 7LL       0.114000
     35 H12          5.9940     0.7530    -2.5280 ha         1 7LL       0.118000
     36 H13          4.6860    -1.3010    -3.0060 ha         1 7LL       0.117000
     37 H14          2.7960    -1.9300    -1.6090 ha         1 7LL       0.123000
@<TRIPOS>BOND
     1     1     3 ar  
     2     1     8 1   
     3     1     9 ar  
     4     2     8 2   
     5     3     5 ar  
     6     3    24 1   
     7     4    15 1   
     8     4    25 1   
     9     5     6 ar  
    10     5    26 1   
    11     6     7 ar  
    12     6    27 1   
    13     7     9 ar  
    14     7    28 1   
    15     8    11 1   
    16     9    10 1   
    17    10    29 1   
    18    11    12 1   
    19    11    30 1   
    20    12    13 2   
    21    13    14 1   
    22    13    31 1   
    23    14    15 ar  
    24    14    19 ar  
    25    15    16 ar  
    26    16    17 ar  
    27    16    32 1   
    28    17    18 ar  
    29    17    33 1   
    30    18    19 ar  
    31    18    20 ar  
    32    19    23 ar  
    33    20    21 ar  
    34    20    34 1   
    35    21    22 ar  
    36    21    35 1   
    37    22    23 ar  
    38    22    36 1   
    39    23    37 1   
@<TRIPOS>SUBSTRUCTURE
     1 7LL         1 TEMP              0 ****  ****    0 ROOT
