@<TRIPOS>MOLECULE
7LL
   37    39     1     0     0
SMALL
No Charge or Current Charge


@<TRIPOS>ATOM
      1 C1          -2.3130     0.1240    -0.2620 ca         1 7LL      -0.276600
      2 O1          -1.0350    -1.6600    -1.2210 o          1 7LL      -0.598100
      3 C2          -2.6810     0.8350     0.9100 ca         1 7LL      -0.038000
      4 O2           1.1190    -0.1540     3.2490 oh         1 7LL      -0.528100
      5 C3          -3.5540     1.9330     0.8360 ca         1 7LL      -0.171000
      6 C4          -4.0740     2.3460    -0.3980 ca         1 7LL      -0.042000
      7 C5          -3.7170     1.6540    -1.5640 ca         1 7LL      -0.171000
      8 C6          -1.3690    -1.0610    -0.2010 c          1 7LL       0.646700
      9 C           -2.8460     0.5560    -1.5000 ca         1 7LL       0.220100
     10 O           -2.5280    -0.0800    -2.6600 oh         1 7LL      -0.544100
     11 N           -0.9020    -1.4300     1.0550 ns         1 7LL      -0.256900
     12 N1           0.0410    -2.4250     1.2710 n2         1 7LL      -0.400300
     13 C7           1.3110    -2.1400     1.2100 ce         1 7LL       0.389800
     14 C8           1.8190    -0.7450     1.0220 ca         1 7LL      -0.222900
     15 C9           1.6950     0.1970     2.0650 ca         1 7LL       0.150100
     16 C10          2.1760     1.5040     1.9050 ca         1 7LL      -0.197000
     17 C11          2.7930     1.8870     0.7050 ca         1 7LL      -0.041000
     18 C12          2.9320     0.9600    -0.3410 ca         1 7LL      -0.073000
     19 C13          2.4490    -0.3620    -0.1890 ca         1 7LL       0.019000
     20 C17          3.5540     1.3550    -1.5410 ca         1 7LL      -0.085000
     21 C16          3.6960     0.4410    -2.5980 ca         1 7LL      -0.115000
     22 C15          3.2140    -0.8690    -2.4590 ca         1 7LL      -0.089000
     23 C14          2.5930    -1.2710    -1.2640 ca         1 7LL      -0.112000
     24 H1          -2.3020     0.5560     1.8900 ha         1 7LL       0.107000
     25 H2           1.1800     0.6090     3.8620 ho         1 7LL       0.471000
     26 H3          -3.8270     2.4680     1.7430 ha         1 7LL       0.117000
     27 H4          -4.7500     3.1970    -0.4510 ha         1 7LL       0.116000
     28 H5          -4.1170     1.9700    -2.5230 ha         1 7LL       0.134000
     29 H6          -1.9030    -0.8070    -2.4040 ho         1 7LL       0.518000
     30 H7          -1.2300    -0.8640     1.8290 hn         1 7LL       0.321500
     31 H8           2.0540    -2.9380     1.1460 h4         1 7LL       0.041800
     32 H9           2.0790     2.2300     2.7090 ha         1 7LL       0.118000
     33 H10          3.1630     2.9040     0.5920 ha         1 7LL       0.118000
     34 H11          3.9270     2.3700    -1.6580 ha         1 7LL       0.114000
     35 H12          4.1760     0.7500    -3.5240 ha         1 7LL       0.118000
     36 H13          3.3200    -1.5760    -3.2790 ha         1 7LL       0.117000
     37 H14          2.2240    -2.2900    -1.1920 ha         1 7LL       0.123000
@<TRIPOS>BOND
     1     1     3 ar  
     2     1     8 1   
     3     1     9 ar  
     4     2     8 2   
     5     3     5 ar  
     6     3    24 1   
     7     4    15 1   
     8     4    25 1   
     9     5     6 ar  
    10     5    26 1   
    11     6     7 ar  
    12     6    27 1   
    13     7     9 ar  
    14     7    28 1   
    15     8    11 1   
    16     9    10 1   
    17    10    29 1   
    18    11    12 1   
    19    11    30 1   
    20    12    13 2   
    21    13    14 1   
    22    13    31 1   
    23    14    15 ar  
    24    14    19 ar  
    25    15    16 ar  
    26    16    17 ar  
    27    16    32 1   
    28    17    18 ar  
    29    17    33 1   
    30    18    19 ar  
    31    18    20 ar  
    32    19    23 ar  
    33    20    21 ar  
    34    20    34 1   
    35    21    22 ar  
    36    21    35 1   
    37    22    23 ar  
    38    22    36 1   
    39    23    37 1   
@<TRIPOS>SUBSTRUCTURE
     1 7LL         1 TEMP              0 ****  ****    0 ROOT
