@<TRIPOS>MOLECULE
7LM
  109   110     1     0     0
SMALL
No Charge or Current Charge


@<TRIPOS>ATOM
      1 C5           8.0350    -0.9210    -0.4380 c6         1 7LM       0.172300
      2 C6           9.3030    -0.6870    -1.3270 c3         1 7LM       0.169600
      3 C2           6.4810    -2.4220     1.5620 c6         1 7LM       0.114300
      4 C4           8.3250    -0.6870     1.0810 c6         1 7LM       0.146300
      5 CAA          9.7100     6.3240     3.6550 c3         1 7LM      -0.088100
      6 CAB          9.4400     5.0200     2.8800 c3         1 7LM      -0.075400
      7 CAC          8.2130     5.1140     1.9480 c3         1 7LM      -0.075400
      8 CAD          7.9430     3.8060     1.1720 c3         1 7LM      -0.075400
      9 CAE          6.7150     3.8980     0.2400 c3         1 7LM      -0.076400
     10 CAF          6.4530     2.5870    -0.5300 c3         1 7LM      -0.063400
     11 CAG          5.2120     2.6490    -1.4510 c3         1 7LM      -0.150400
     12 OAI          5.6790     1.0060    -3.1650 o          1 7LM      -0.610100
     13 NAJ          4.0280     0.5170    -1.6740 ns         1 7LM      -0.495900
     14 CAK          3.7060    -0.8460    -2.1230 c3         1 7LM       0.091700
     15 CAL          4.8910    -1.8190    -1.8470 c3         1 7LM       0.142600
     16 O1           5.2350    -1.7350    -0.4480 os         1 7LM      -0.477000
     17 C1           6.3050    -2.5850     0.0140 c6         1 7LM       0.360300
     18 O5           7.5370    -2.2660    -0.6740 os         1 7LM      -0.448000
     19 O6           9.0650    -0.8850    -2.7360 oh         1 7LM      -0.712000
     20 O4           9.4000    -1.5090     1.5810 oh         1 7LM      -0.714000
     21 C3           7.0340    -0.9990     1.8940 c6         1 7LM       0.140300
     22 O3           7.2960    -0.8960     3.3080 oh         1 7LM      -0.674000
     23 O2           5.2340    -2.6370     2.2670 oh         1 7LM      -0.711000
     24 CAY          2.3610    -1.3820    -1.5160 c3         1 7LM       0.129300
     25 OAZ          2.0130    -2.6050    -2.2020 oh         1 7LM      -0.642000
     26 CBA          1.1490    -0.3760    -1.5540 c3         1 7LM       0.136300
     27 OBB          1.4140     0.7600    -0.7110 oh         1 7LM      -0.649000
     28 CBC         -0.1960    -1.0050    -1.0880 c3         1 7LM      -0.108400
     29 CBD         -1.4210    -0.0610    -1.1930 c3         1 7LM      -0.073400
     30 CBE         -2.7470    -0.7540    -0.8080 c3         1 7LM      -0.076400
     31 CBF         -3.9710     0.1820    -0.9130 c3         1 7LM      -0.074400
     32 CBG         -5.2960    -0.5110    -0.5280 c3         1 7LM      -0.074400
     33 CBH         -6.5210     0.4240    -0.6350 c3         1 7LM      -0.074400
     34 CBI         -7.8460    -0.2690    -0.2500 c3         1 7LM      -0.074400
     35 CBJ         -9.0700     0.6670    -0.3580 c3         1 7LM      -0.074400
     36 CBK        -10.3960    -0.0260     0.0260 c3         1 7LM      -0.074400
     37 CBL        -11.6200     0.9100    -0.0820 c3         1 7LM      -0.075400
     38 CBM        -12.9460     0.2170     0.3030 c3         1 7LM      -0.073400
     39 CBN        -14.1720     1.1480     0.1940 c3         1 7LM      -0.031100
     40 CBO        -15.4640     0.4410     0.5800 ca         1 7LM      -0.077300
     41 CBP        -15.9150     0.4620     1.9150 ca         1 7LM      -0.108000
     42 CBQ        -17.1060    -0.1950     2.2710 ca         1 7LM      -0.109500
     43 CBR        -17.8520    -0.8770     1.2960 ca         1 7LM      -0.112000
     44 CBS        -17.4060    -0.9030    -0.0360 ca         1 7LM      -0.109500
     45 CBT        -16.2150    -0.2470    -0.3930 ca         1 7LM      -0.108000
     46 H1           7.2710    -0.2040    -0.7670 h1         1 7LM       0.052700
     47 H2           9.6550     0.3380    -1.1480 h1         1 7LM       0.035700
     48 H3          10.0950    -1.3660    -0.9850 h1         1 7LM       0.035700
     49 H4           7.2210    -3.1680     1.8870 h1         1 7LM       0.063700
     50 H5           8.5720     0.3760     1.2240 h1         1 7LM       0.047700
     51 H6           9.8990     7.1550     2.9640 hc         1 7LM       0.031367
     52 H7           8.8520     6.5860     4.2860 hc         1 7LM       0.031367
     53 H8          10.5880     6.2100     4.3020 hc         1 7LM       0.031367
     54 H9          10.3280     4.7670     2.2880 hc         1 7LM       0.037200
     55 H10          9.2900     4.2040     3.5980 hc         1 7LM       0.037200
     56 H11          7.3270     5.3690     2.5430 hc         1 7LM       0.035700
     57 H12          8.3650     5.9320     1.2330 hc         1 7LM       0.035700
     58 H13          8.8290     3.5510     0.5770 hc         1 7LM       0.039200
     59 H14          7.7920     2.9880     1.8880 hc         1 7LM       0.039200
     60 H15          5.8280     4.1510     0.8350 hc         1 7LM       0.032700
     61 H16          6.8650     4.7140    -0.4780 hc         1 7LM       0.032700
     62 H17          7.3380     2.3390    -1.1300 hc         1 7LM       0.056700
     63 H18          6.3180     1.7720     0.1930 hc         1 7LM       0.056700
     64 H19          4.3350     2.8650    -0.8290 hc         1 7LM       0.053700
     65 H20          5.3610     3.4470    -2.1870 hc         1 7LM       0.053700
     66 H21          3.4720     0.8990    -0.9150 hn         1 7LM       0.313500
     67 H22          3.5730    -0.7960    -3.2130 h1         1 7LM       0.079700
     68 H23          4.6120    -2.8440    -2.1220 h1         1 7LM       0.052700
     69 H24          5.7470    -1.5320    -2.4710 h1         1 7LM       0.052700
     70 H25          6.0420    -3.6320    -0.1970 h2         1 7LM       0.069700
     71 H26          9.9340    -0.7950    -3.1910 ho         1 7LM       0.505000
     72 H27          9.2470    -1.5350     2.5570 ho         1 7LM       0.522000
     73 H28          6.2710    -0.2610     1.6050 h1         1 7LM       0.062700
     74 H29          6.5340    -1.3450     3.7430 ho         1 7LM       0.469000
     75 H30          4.5280    -2.2750     1.6800 ho         1 7LM       0.512000
     76 H31          2.5480    -1.6050    -0.4560 h1         1 7LM       0.083700
     77 H32          1.6990    -2.3680    -3.1010 ho         1 7LM       0.438000
     78 H33          1.0240    -0.0420    -2.5940 h1         1 7LM       0.074700
     79 H34          0.6100     1.3220    -0.7230 ho         1 7LM       0.436000
     80 H35         -0.4080    -1.8950    -1.6920 hc         1 7LM       0.050200
     81 H36         -0.0920    -1.3500    -0.0510 hc         1 7LM       0.050200
     82 H37         -1.2790     0.8090    -0.5410 hc         1 7LM       0.044200
     83 H38         -1.4990     0.3150    -2.2220 hc         1 7LM       0.044200
     84 H39         -2.9020    -1.6230    -1.4600 hc         1 7LM       0.037200
     85 H40         -2.6700    -1.1330     0.2190 hc         1 7LM       0.037200
     86 H41         -3.8170     1.0510    -0.2610 hc         1 7LM       0.038200
     87 H42         -4.0480     0.5610    -1.9400 hc         1 7LM       0.038200
     88 H43         -5.4500    -1.3810    -1.1800 hc         1 7LM       0.037200
     89 H44         -5.2200    -0.8900     0.4990 hc         1 7LM       0.037200
     90 H45         -6.3670     1.2940     0.0160 hc         1 7LM       0.037700
     91 H46         -6.5970     0.8020    -1.6620 hc         1 7LM       0.037700
     92 H47         -8.0000    -1.1390    -0.9010 hc         1 7LM       0.037700
     93 H48         -7.7710    -0.6460     0.7770 hc         1 7LM       0.037700
     94 H49         -8.9170     1.5370     0.2920 hc         1 7LM       0.037200
     95 H50         -9.1460     1.0440    -1.3860 hc         1 7LM       0.037200
     96 H51        -10.5490    -0.8960    -0.6240 hc         1 7LM       0.037700
     97 H52        -10.3210    -0.4020     1.0540 hc         1 7LM       0.037700
     98 H53        -11.4670     1.7800     0.5670 hc         1 7LM       0.036700
     99 H54        -11.6960     1.2860    -1.1100 hc         1 7LM       0.036700
    100 H55        -13.1000    -0.6550    -0.3460 hc         1 7LM       0.042700
    101 H56        -12.8720    -0.1590     1.3310 hc         1 7LM       0.042700
    102 H57        -14.0160     2.0250     0.8360 hc         1 7LM       0.045700
    103 H58        -14.2440     1.5310    -0.8320 hc         1 7LM       0.045700
    104 H59        -15.3420     0.9860     2.6760 ha         1 7LM       0.110000
    105 H60        -17.4490    -0.1750     3.3030 ha         1 7LM       0.111000
    106 H61        -18.7730    -1.3860     1.5720 ha         1 7LM       0.111000
    107 H62        -17.9820    -1.4330    -0.7920 ha         1 7LM       0.111000
    108 H63        -15.8750    -0.2740    -1.4260 ha         1 7LM       0.110000
    109 CAH          5.0180     1.3190    -2.1860 c          1 7LM       0.613100
@<TRIPOS>BOND
     1     1     2 1   
     2     1     4 1   
     3     1    18 1   
     4     1    46 1   
     5     2    19 1   
     6     2    47 1   
     7     2    48 1   
     8     3    17 1   
     9     3    21 1   
    10     3    23 1   
    11     3    49 1   
    12     4    20 1   
    13     4    21 1   
    14     4    50 1   
    15     5     6 1   
    16     5    51 1   
    17     5    52 1   
    18     5    53 1   
    19     6     7 1   
    20     6    54 1   
    21     6    55 1   
    22     7     8 1   
    23     7    56 1   
    24     7    57 1   
    25     8     9 1   
    26     8    58 1   
    27     8    59 1   
    28     9    10 1   
    29     9    60 1   
    30     9    61 1   
    31    10    11 1   
    32    10    62 1   
    33    10    63 1   
    34    11    64 1   
    35    11    65 1   
    36    11   109 1   
    37    12   109 2   
    38    13    14 1   
    39    13    66 1   
    40    13   109 1   
    41    14    15 1   
    42    14    24 1   
    43    14    67 1   
    44    15    16 1   
    45    15    68 1   
    46    15    69 1   
    47    16    17 1   
    48    17    18 1   
    49    17    70 1   
    50    19    71 1   
    51    20    72 1   
    52    21    22 1   
    53    21    73 1   
    54    22    74 1   
    55    23    75 1   
    56    24    25 1   
    57    24    26 1   
    58    24    76 1   
    59    25    77 1   
    60    26    27 1   
    61    26    28 1   
    62    26    78 1   
    63    27    79 1   
    64    28    29 1   
    65    28    80 1   
    66    28    81 1   
    67    29    30 1   
    68    29    82 1   
    69    29    83 1   
    70    30    31 1   
    71    30    84 1   
    72    30    85 1   
    73    31    32 1   
    74    31    86 1   
    75    31    87 1   
    76    32    33 1   
    77    32    88 1   
    78    32    89 1   
    79    33    34 1   
    80    33    90 1   
    81    33    91 1   
    82    34    35 1   
    83    34    92 1   
    84    34    93 1   
    85    35    36 1   
    86    35    94 1   
    87    35    95 1   
    88    36    37 1   
    89    36    96 1   
    90    36    97 1   
    91    37    38 1   
    92    37    98 1   
    93    37    99 1   
    94    38    39 1   
    95    38   100 1   
    96    38   101 1   
    97    39    40 1   
    98    39   102 1   
    99    39   103 1   
   100    40    41 ar  
   101    40    45 ar  
   102    41    42 ar  
   103    41   104 1   
   104    42    43 ar  
   105    42   105 1   
   106    43    44 ar  
   107    43   106 1   
   108    44    45 ar  
   109    44   107 1   
   110    45   108 1   
@<TRIPOS>SUBSTRUCTURE
     1 7LM         1 TEMP              0 ****  ****    0 ROOT
