@<TRIPOS>MOLECULE
7LM
  109   110     1     0     0
SMALL
abcg2


@<TRIPOS>ATOM
      1 C5           7.2720    -1.2810     0.6890 c6         1 7LM       0.172300
      2 C6           8.4290    -0.3140     0.5640 c3         1 7LM       0.169600
      3 C2           6.2110    -3.9310     0.7830 c6         1 7LM       0.114300
      4 C4           7.2810    -2.0390     2.0090 c6         1 7LM       0.146300
      5 CAA         10.3130     7.7050     1.7310 c3         1 7LM      -0.088100
      6 CAB          9.6180     6.9810     0.5870 c3         1 7LM      -0.075400
      7 CAC          8.6120     5.9400     1.0660 c3         1 7LM      -0.075400
      8 CAD          7.9230     5.2020    -0.0730 c3         1 7LM      -0.075400
      9 CAE          6.9320     4.1470     0.4030 c3         1 7LM      -0.076400
     10 CAF          6.2920     3.3770    -0.7440 c3         1 7LM      -0.063400
     11 CAG          5.3250     2.3140    -0.2480 c3         1 7LM      -0.150400
     12 OAI          5.0310     1.5700    -2.5210 o          1 7LM      -0.610100
     13 NAJ          4.1800     0.2930    -0.8680 ns         1 7LM      -0.495900
     14 CAK          3.6980    -0.7800    -1.7060 c3         1 7LM       0.091700
     15 CAL          4.7890    -1.8320    -1.8730 c3         1 7LM       0.142600
     16 O1           5.0210    -2.4360    -0.6180 os         1 7LM      -0.477000
     17 C1           6.2470    -3.0710    -0.4840 c6         1 7LM       0.360300
     18 O5           7.3160    -2.1670    -0.4170 os         1 7LM      -0.448000
     19 O6           8.2350     0.4640    -0.5930 oh         1 7LM      -0.712000
     20 O4           8.5230    -2.6790     2.1690 oh         1 7LM      -0.714000
     21 C3           6.1270    -3.0390     2.0150 c6         1 7LM       0.140300
     22 O3           6.2150    -3.7830     3.2080 oh         1 7LM      -0.674000
     23 O2           5.1180    -4.8150     0.8060 oh         1 7LM      -0.711000
     24 CAY          2.3810    -1.3760    -1.1690 c3         1 7LM       0.129300
     25 OAZ          2.0320    -2.4920    -1.9550 oh         1 7LM      -0.642000
     26 CBA          1.2290    -0.3500    -1.0880 c3         1 7LM       0.136300
     27 OBB          1.4690     0.6030    -0.0720 oh         1 7LM      -0.649000
     28 CBC         -0.1280    -1.0250    -0.8960 c3         1 7LM      -0.108400
     29 CBD         -1.2910    -0.0420    -0.8330 c3         1 7LM      -0.073400
     30 CBE         -2.6350    -0.7450    -0.6810 c3         1 7LM      -0.076400
     31 CBF         -3.8160     0.2170    -0.6360 c3         1 7LM      -0.074400
     32 CBG         -5.1560    -0.4870    -0.4670 c3         1 7LM      -0.074400
     33 CBH         -6.3400     0.4720    -0.4300 c3         1 7LM      -0.074400
     34 CBI         -7.6800    -0.2330    -0.2560 c3         1 7LM      -0.074400
     35 CBJ         -8.8630     0.7260    -0.2230 c3         1 7LM      -0.074400
     36 CBK        -10.2040     0.0240    -0.0490 c3         1 7LM      -0.074400
     37 CBL        -11.3830     0.9880    -0.0170 c3         1 7LM      -0.075400
     38 CBM        -12.7260     0.2890     0.1570 c3         1 7LM      -0.073400
     39 CBN        -13.8980     1.2720     0.1940 c3         1 7LM      -0.031100
     40 CBO        -15.2200     0.5790     0.3670 ca         1 7LM      -0.077300
     41 CBP        -15.7320     0.3190     1.6370 ca         1 7LM      -0.108000
     42 CBQ        -16.9350    -0.3560     1.7980 ca         1 7LM      -0.109500
     43 CBR        -17.6490    -0.7850     0.6860 ca         1 7LM      -0.112000
     44 CBS        -17.1490    -0.5330    -0.5850 ca         1 7LM      -0.109500
     45 CBT        -15.9450     0.1420    -0.7400 ca         1 7LM      -0.108000
     46 H1           6.3470    -0.6900     0.6690 h1         1 7LM       0.052700
     47 H2           8.4440     0.3030     1.4720 h1         1 7LM       0.035700
     48 H3           9.3790    -0.8620     0.5290 h1         1 7LM       0.035700
     49 H4           7.1590    -4.4840     0.8190 h1         1 7LM       0.063700
     50 H5           7.1100    -1.3060     2.8130 h1         1 7LM       0.047700
     51 H6           9.5940     8.2310     2.3610 hc         1 7LM       0.031367
     52 H7          10.8550     7.0040     2.3690 hc         1 7LM       0.031367
     53 H8          11.0310     8.4400     1.3630 hc         1 7LM       0.031367
     54 H9           9.1080     7.7080    -0.0520 hc         1 7LM       0.037200
     55 H10         10.3650     6.4930    -0.0460 hc         1 7LM       0.037200
     56 H11          9.1220     5.2150     1.7110 hc         1 7LM       0.035700
     57 H12          7.8590     6.4270     1.6950 hc         1 7LM       0.035700
     58 H13          7.4070     5.9230    -0.7160 hc         1 7LM       0.039200
     59 H14          8.6810     4.7230    -0.7040 hc         1 7LM       0.039200
     60 H15          7.4480     3.4400     1.0630 hc         1 7LM       0.032700
     61 H16          6.1580     4.6230     1.0140 hc         1 7LM       0.032700
     62 H17          5.7770     4.0710    -1.4130 hc         1 7LM       0.056700
     63 H18          7.0770     2.9010    -1.3350 hc         1 7LM       0.056700
     64 H19          5.8020     1.7240     0.5400 hc         1 7LM       0.053700
     65 H20          4.4500     2.7800     0.2180 hc         1 7LM       0.053700
     66 H21          4.0700     0.1960     0.1280 hn         1 7LM       0.313500
     67 H22          3.4980    -0.3630    -2.6990 h1         1 7LM       0.079700
     68 H23          4.5040    -2.5860    -2.6150 h1         1 7LM       0.052700
     69 H24          5.6870    -1.3280    -2.2460 h1         1 7LM       0.052700
     70 H25          6.4600    -3.7010    -1.3590 h2         1 7LM       0.069700
     71 H26          8.9500     1.1050    -0.6430 ho         1 7LM       0.505000
     72 H27          8.4530    -3.2710     2.9270 ho         1 7LM       0.522000
     73 H28          5.1860    -2.4700     1.9800 h1         1 7LM       0.062700
     74 H29          5.6150    -4.5350     3.1420 ho         1 7LM       0.469000
     75 H30          5.3240    -5.5760     0.2560 ho         1 7LM       0.512000
     76 H31          2.5470    -1.7720    -0.1600 h1         1 7LM       0.083700
     77 H32          1.8330    -2.1920    -2.8500 ho         1 7LM       0.438000
     78 H33          1.2060     0.2210    -2.0260 h1         1 7LM       0.074700
     79 H34          1.3500     0.1660     0.7790 ho         1 7LM       0.436000
     80 H35         -0.3070    -1.7270    -1.7120 hc         1 7LM       0.050200
     81 H36         -0.1050    -1.6300     0.0210 hc         1 7LM       0.050200
     82 H37         -1.1560     0.6560    -0.0030 hc         1 7LM       0.044200
     83 H38         -1.3000     0.5660    -1.7460 hc         1 7LM       0.044200
     84 H39         -2.7730    -1.4500    -1.5080 hc         1 7LM       0.037200
     85 H40         -2.6260    -1.3500     0.2330 hc         1 7LM       0.037200
     86 H41         -3.6740     0.9280     0.1850 hc         1 7LM       0.038200
     87 H42         -3.8310     0.8150    -1.5540 hc         1 7LM       0.038200
     88 H43         -5.2950    -1.2030    -1.2850 hc         1 7LM       0.037200
     89 H44         -5.1420    -1.0810     0.4540 hc         1 7LM       0.037200
     90 H45         -6.2000     1.1900     0.3860 hc         1 7LM       0.037700
     91 H46         -6.3560     1.0630    -1.3530 hc         1 7LM       0.037700
     92 H47         -7.8190    -0.9520    -1.0710 hc         1 7LM       0.037700
     93 H48         -7.6640    -0.8220     0.6680 hc         1 7LM       0.037700
     94 H49         -8.7230     1.4460     0.5910 hc         1 7LM       0.037200
     95 H50         -8.8790     1.3150    -1.1470 hc         1 7LM       0.037200
     96 H51        -10.3450    -0.6960    -0.8620 hc         1 7LM       0.037700
     97 H52        -10.1900    -0.5630     0.8770 hc         1 7LM       0.037700
     98 H53        -11.2420     1.7080     0.7970 hc         1 7LM       0.036700
     99 H54        -11.3970     1.5760    -0.9410 hc         1 7LM       0.036700
    100 H55        -12.8770    -0.4250    -0.6590 hc         1 7LM       0.042700
    101 H56        -12.7190    -0.2980     1.0810 hc         1 7LM       0.042700
    102 H57        -13.7430     1.9830     1.0100 hc         1 7LM       0.045700
    103 H58        -13.9050     1.8570    -0.7300 hc         1 7LM       0.045700
    104 H59        -15.1860     0.6530     2.5120 ha         1 7LM       0.110000
    105 H60        -17.3190    -0.5420     2.7930 ha         1 7LM       0.111000
    106 H61        -18.5880    -1.3090     0.8100 ha         1 7LM       0.111000
    107 H62        -17.7000    -0.8570    -1.4600 ha         1 7LM       0.111000
    108 H63        -15.5650     0.3370    -1.7360 ha         1 7LM       0.110000
    109 CAH          4.8430     1.3680    -1.3290 c          1 7LM       0.613100
@<TRIPOS>BOND
     1     1     2 1   
     2     1     4 1   
     3     1    18 1   
     4     1    46 1   
     5     2    19 1   
     6     2    47 1   
     7     2    48 1   
     8     3    17 1   
     9     3    21 1   
    10     3    23 1   
    11     3    49 1   
    12     4    20 1   
    13     4    21 1   
    14     4    50 1   
    15     5     6 1   
    16     5    51 1   
    17     5    52 1   
    18     5    53 1   
    19     6     7 1   
    20     6    54 1   
    21     6    55 1   
    22     7     8 1   
    23     7    56 1   
    24     7    57 1   
    25     8     9 1   
    26     8    58 1   
    27     8    59 1   
    28     9    10 1   
    29     9    60 1   
    30     9    61 1   
    31    10    11 1   
    32    10    62 1   
    33    10    63 1   
    34    11    64 1   
    35    11    65 1   
    36    11   109 1   
    37    12   109 2   
    38    13    14 1   
    39    13    66 1   
    40    13   109 1   
    41    14    15 1   
    42    14    24 1   
    43    14    67 1   
    44    15    16 1   
    45    15    68 1   
    46    15    69 1   
    47    16    17 1   
    48    17    18 1   
    49    17    70 1   
    50    19    71 1   
    51    20    72 1   
    52    21    22 1   
    53    21    73 1   
    54    22    74 1   
    55    23    75 1   
    56    24    25 1   
    57    24    26 1   
    58    24    76 1   
    59    25    77 1   
    60    26    27 1   
    61    26    28 1   
    62    26    78 1   
    63    27    79 1   
    64    28    29 1   
    65    28    80 1   
    66    28    81 1   
    67    29    30 1   
    68    29    82 1   
    69    29    83 1   
    70    30    31 1   
    71    30    84 1   
    72    30    85 1   
    73    31    32 1   
    74    31    86 1   
    75    31    87 1   
    76    32    33 1   
    77    32    88 1   
    78    32    89 1   
    79    33    34 1   
    80    33    90 1   
    81    33    91 1   
    82    34    35 1   
    83    34    92 1   
    84    34    93 1   
    85    35    36 1   
    86    35    94 1   
    87    35    95 1   
    88    36    37 1   
    89    36    96 1   
    90    36    97 1   
    91    37    38 1   
    92    37    98 1   
    93    37    99 1   
    94    38    39 1   
    95    38   100 1   
    96    38   101 1   
    97    39    40 1   
    98    39   102 1   
    99    39   103 1   
   100    40    41 ar  
   101    40    45 ar  
   102    41    42 ar  
   103    41   104 1   
   104    42    43 ar  
   105    42   105 1   
   106    43    44 ar  
   107    43   106 1   
   108    44    45 ar  
   109    44   107 1   
   110    45   108 1   
@<TRIPOS>SUBSTRUCTURE
     1 7LM         1 TEMP              0 ****  ****    0 ROOT
