@<TRIPOS>MOLECULE
7LP
  104   105     1     0     0
SMALL
bcc


@<TRIPOS>ATOM
      1 C2           5.6870     3.3200    -0.7070 c3         1 7LP      -0.067400
      2 C1           4.6210     2.3470    -0.2270 c3         1 7LP      -0.151400
      3 O1          -4.0430     1.3010    -0.2770 o          1 7LP      -0.602100
      4 C7           9.0480     8.2710     1.5770 c3         1 7LP      -0.089100
      5 C6           8.5840     7.3220     0.4800 c3         1 7LP      -0.075400
      6 C5           7.5880     6.2820     0.9780 c3         1 7LP      -0.075400
      7 C4           7.1310     5.3180    -0.1080 c3         1 7LP      -0.074400
      8 C3           6.1050     4.3020     0.3790 c3         1 7LP      -0.076400
      9 C20          4.2150     1.3340    -1.2770 c          1 7LP       0.680100
     10 O            4.2850     1.5670    -2.4760 o          1 7LP      -0.610100
     11 C27          3.2750    -0.9250    -1.5880 c3         1 7LP       0.089700
     12 C28          4.3940    -1.9440    -1.7690 c3         1 7LP       0.122400
     13 O4           4.7130    -2.4730    -0.4990 os         1 7LP      -0.432600
     14 C31          5.9520    -3.0930    -0.4080 c6         1 7LP       0.313900
     15 O9           7.0160    -2.1900    -0.5380 os         1 7LP      -0.403600
     16 C30          7.0570    -1.1780     0.4550 c6         1 7LP       0.149100
     17 C29          8.1980    -0.2420     0.1190 c3         1 7LP       0.147400
     18 O8           7.9070     0.3920    -1.1050 oh         1 7LP      -0.589800
     19 C34          7.1800    -1.7760     1.8500 c6         1 7LP       0.124100
     20 O7           8.4390    -2.3910     1.9780 oh         1 7LP      -0.592800
     21 C33          6.0420    -2.7720     2.0680 c6         1 7LP       0.117100
     22 O6           6.2340    -3.3700     3.3290 oh         1 7LP      -0.611800
     23 C32          6.0330    -3.8020     0.9470 c6         1 7LP       0.092100
     24 O5           4.9510    -4.6740     1.1630 oh         1 7LP      -0.589800
     25 C26          1.9880    -1.5410    -1.0030 c3         1 7LP       0.104100
     26 O3           1.6280    -2.6670    -1.7680 oh         1 7LP      -0.581800
     27 C25          0.8330    -0.5190    -0.8900 c3         1 7LP       0.113100
     28 O2           1.0840     0.4100     0.1450 oh         1 7LP      -0.584800
     29 C24         -0.5270    -1.1890    -0.7030 c3         1 7LP      -0.110400
     30 C23         -1.6700    -0.1820    -0.6310 c3         1 7LP      -0.063400
     31 C22         -3.0130    -0.8730    -0.4610 c3         1 7LP      -0.157400
     32 C21         -4.1830     0.0870    -0.3600 c          1 7LP       0.663100
     33 N1          -5.3930    -0.4930    -0.3530 ns         1 7LP      -0.580900
     34 C19         -6.6270     0.2500    -0.2080 c3         1 7LP       0.106000
     35 C18         -7.8220    -0.6900    -0.1810 c3         1 7LP      -0.095400
     36 C17         -9.1360     0.0620    -0.0210 c3         1 7LP      -0.072400
     37 C16        -10.3440    -0.8660     0.0100 c3         1 7LP      -0.075400
     38 C15        -11.6620    -0.1220     0.1800 c3         1 7LP      -0.073400
     39 C14        -12.8660    -1.0660     0.2170 c3         1 7LP      -0.031100
     40 C13        -14.1640    -0.3290     0.3940 ca         1 7LP      -0.078300
     41 C8         -14.8800     0.1270    -0.7110 ca         1 7LP      -0.125500
     42 C9         -16.0600     0.8420    -0.5530 ca         1 7LP      -0.127000
     43 C10        -16.5440     1.1160     0.7200 ca         1 7LP      -0.129000
     44 C11        -15.8390     0.6680     1.8290 ca         1 7LP      -0.127000
     45 C12        -14.6600    -0.0460     1.6650 ca         1 7LP      -0.125500
     46 N2           3.7490     0.1750    -0.7820 ns         1 7LP      -0.561900
     47 H1           6.5610     2.7580    -1.0460 hc         1 7LP       0.057200
     48 H2           5.3130     3.8710    -1.5730 hc         1 7LP       0.057200
     49 H3           4.9620     1.8320     0.6760 hc         1 7LP       0.053700
     50 H4           3.7200     2.8970     0.0660 hc         1 7LP       0.053700
     51 H5           8.2030     8.7980     2.0250 hc         1 7LP       0.031033
     52 H6           9.5570     7.7290     2.3770 hc         1 7LP       0.031033
     53 H7           9.7400     9.0210     1.1940 hc         1 7LP       0.031033
     54 H8           8.1290     7.8980    -0.3320 hc         1 7LP       0.036700
     55 H9           9.4500     6.8150     0.0440 hc         1 7LP       0.036700
     56 H10          8.0370     5.7140     1.8010 hc         1 7LP       0.036200
     57 H11          6.7160     6.7920     1.4030 hc         1 7LP       0.036200
     58 H12          6.7050     5.8870    -0.9420 hc         1 7LP       0.038700
     59 H13          8.0000     4.7900    -0.5150 hc         1 7LP       0.038700
     60 H14          5.2240     4.8300     0.7580 hc         1 7LP       0.034200
     61 H15          6.5170     3.7490     1.2300 hc         1 7LP       0.034200
     62 H16          3.0360    -0.5300    -2.5810 h1         1 7LP       0.080700
     63 H17          4.0980    -2.7430    -2.4570 h1         1 7LP       0.053200
     64 H18          5.2510    -1.4250    -2.2100 h1         1 7LP       0.053200
     65 H19          6.0910    -3.8170    -1.2240 h2         1 7LP       0.069700
     66 H20          6.1320    -0.5880     0.4350 h1         1 7LP       0.056700
     67 H21          8.2910     0.4820     0.9390 h1         1 7LP       0.035700
     68 H22          9.1410    -0.7980     0.0700 h1         1 7LP       0.035700
     69 H23          8.6160     1.0140    -1.2920 ho         1 7LP       0.405000
     70 H24          7.0670    -0.9560     2.5770 h1         1 7LP       0.048700
     71 H25          8.4490    -2.8780     2.8090 ho         1 7LP       0.422000
     72 H26          5.0950    -2.2120     2.0450 h1         1 7LP       0.061700
     73 H27          5.6280    -4.1160     3.4060 ho         1 7LP       0.429000
     74 H28          6.9840    -4.3480     0.9660 h1         1 7LP       0.064700
     75 H29          5.1200    -5.4990     0.6980 ho         1 7LP       0.413000
     76 H30          2.1930    -1.9270     0.0020 h1         1 7LP       0.084700
     77 H31          1.4090    -2.3810    -2.6630 ho         1 7LP       0.400000
     78 H32          0.8030     0.0740    -1.8140 h1         1 7LP       0.077700
     79 H33          0.9900    -0.0500     0.9870 ho         1 7LP       0.398000
     80 H34         -0.7130    -1.8810    -1.5270 hc         1 7LP       0.047200
     81 H35         -0.5090    -1.8010     0.2080 hc         1 7LP       0.047200
     82 H36         -1.5100     0.5110     0.1960 hc         1 7LP       0.062700
     83 H37         -1.6750     0.4200    -1.5440 hc         1 7LP       0.062700
     84 H38         -3.1910    -1.5690    -1.2860 hc         1 7LP       0.053200
     85 H39         -3.0030    -1.4900     0.4450 hc         1 7LP       0.053200
     86 H40         -5.4490    -1.4970    -0.4200 hn         1 7LP       0.309500
     87 H41         -6.6030     0.8390     0.7140 h1         1 7LP       0.051700
     88 H42         -6.7370     0.9600    -1.0330 h1         1 7LP       0.051700
     89 H43         -7.8450    -1.2780    -1.1050 hc         1 7LP       0.041200
     90 H44         -7.7060    -1.4030     0.6420 hc         1 7LP       0.041200
     91 H45         -9.1090     0.6540     0.9000 hc         1 7LP       0.044200
     92 H46         -9.2500     0.7790    -0.8420 hc         1 7LP       0.044200
     93 H47        -10.3740    -1.4540    -0.9140 hc         1 7LP       0.037700
     94 H48        -10.2260    -1.5870     0.8260 hc         1 7LP       0.037700
     95 H49        -11.6370     0.4660     1.1040 hc         1 7LP       0.044200
     96 H50        -11.7900     0.5950    -0.6360 hc         1 7LP       0.044200
     97 H51        -12.8930    -1.6490    -0.7080 hc         1 7LP       0.045200
     98 H52        -12.7330    -1.7830     1.0320 hc         1 7LP       0.045200
     99 H53        -14.5120    -0.0850    -1.7080 ha         1 7LP       0.128000
    100 H54        -16.6040     1.1810    -1.4260 ha         1 7LP       0.129000
    101 H55        -17.4650     1.6710     0.8460 ha         1 7LP       0.130000
    102 H56        -16.2110     0.8710     2.8260 ha         1 7LP       0.129000
    103 H57        -14.1200    -0.3940     2.5390 ha         1 7LP       0.128000
    104 H58          3.7040     0.0730     0.2170 hn         1 7LP       0.314500
@<TRIPOS>BOND
     1     1     2 1   
     2     1     8 1   
     3     1    47 1   
     4     1    48 1   
     5     2     9 1   
     6     2    49 1   
     7     2    50 1   
     8     3    32 2   
     9     4     5 1   
    10     4    51 1   
    11     4    52 1   
    12     4    53 1   
    13     5     6 1   
    14     5    54 1   
    15     5    55 1   
    16     6     7 1   
    17     6    56 1   
    18     6    57 1   
    19     7     8 1   
    20     7    58 1   
    21     7    59 1   
    22     8    60 1   
    23     8    61 1   
    24     9    10 2   
    25     9    46 1   
    26    11    12 1   
    27    11    25 1   
    28    11    46 1   
    29    11    62 1   
    30    12    13 1   
    31    12    63 1   
    32    12    64 1   
    33    13    14 1   
    34    14    15 1   
    35    14    23 1   
    36    14    65 1   
    37    15    16 1   
    38    16    17 1   
    39    16    19 1   
    40    16    66 1   
    41    17    18 1   
    42    17    67 1   
    43    17    68 1   
    44    18    69 1   
    45    19    20 1   
    46    19    21 1   
    47    19    70 1   
    48    20    71 1   
    49    21    22 1   
    50    21    23 1   
    51    21    72 1   
    52    22    73 1   
    53    23    24 1   
    54    23    74 1   
    55    24    75 1   
    56    25    26 1   
    57    25    27 1   
    58    25    76 1   
    59    26    77 1   
    60    27    28 1   
    61    27    29 1   
    62    27    78 1   
    63    28    79 1   
    64    29    30 1   
    65    29    80 1   
    66    29    81 1   
    67    30    31 1   
    68    30    82 1   
    69    30    83 1   
    70    31    32 1   
    71    31    84 1   
    72    31    85 1   
    73    32    33 1   
    74    33    34 1   
    75    33    86 1   
    76    34    35 1   
    77    34    87 1   
    78    34    88 1   
    79    35    36 1   
    80    35    89 1   
    81    35    90 1   
    82    36    37 1   
    83    36    91 1   
    84    36    92 1   
    85    37    38 1   
    86    37    93 1   
    87    37    94 1   
    88    38    39 1   
    89    38    95 1   
    90    38    96 1   
    91    39    40 1   
    92    39    97 1   
    93    39    98 1   
    94    40    41 ar  
    95    40    45 ar  
    96    41    42 ar  
    97    41    99 1   
    98    42    43 ar  
    99    42   100 1   
   100    43    44 ar  
   101    43   101 1   
   102    44    45 ar  
   103    44   102 1   
   104    45   103 1   
   105    46   104 1   
@<TRIPOS>SUBSTRUCTURE
     1 7LP         1 TEMP              0 ****  ****    0 ROOT
