@<TRIPOS>MOLECULE
7LP
  104   105     1     0     0
SMALL
No Charge or Current Charge


@<TRIPOS>ATOM
      1 C2           5.5400     2.7540    -0.4790 c3         1 7LP      -0.067400
      2 C1           4.2310     2.7050    -1.3010 c3         1 7LP      -0.151400
      3 O1          -4.6880     0.1140     0.7650 o          1 7LP      -0.602100
      4 C7           8.6650     6.6870     3.6270 c3         1 7LP      -0.089100
      5 C6           8.4870     5.3920     2.8130 c3         1 7LP      -0.075400
      6 C5           7.1870     5.3750     1.9800 c3         1 7LP      -0.075400
      7 C4           7.0100     4.0760     1.1640 c3         1 7LP      -0.074400
      8 C3           5.7090     4.0560     0.3320 c3         1 7LP      -0.076400
      9 C20          4.1330     1.3910    -2.0820 c          1 7LP       0.613100
     10 O            4.7480     1.1950    -3.1200 o          1 7LP      -0.610100
     11 C27          3.0850    -0.9150    -2.0280 c3         1 7LP       0.089700
     12 C28          4.3900    -1.7540    -1.8940 c3         1 7LP       0.145600
     13 O4           4.8390    -1.6860    -0.5240 os         1 7LP      -0.479000
     14 C31          6.0350    -2.4190    -0.1910 c6         1 7LP       0.360300
     15 O9           7.1580    -1.9290    -0.9580 os         1 7LP      -0.450000
     16 C30          7.5150    -0.5440    -0.6960 c6         1 7LP       0.172300
     17 C29          8.6670    -0.1230    -1.6700 c3         1 7LP       0.170600
     18 O8           8.3360    -0.2930    -3.0640 oh         1 7LP      -0.712000
     19 C34          7.9030    -0.3370     0.8050 c6         1 7LP       0.147300
     20 O7           9.1060    -1.0430     1.1770 oh         1 7LP      -0.715000
     21 C33          6.7310    -0.8350     1.7020 c6         1 7LP       0.140300
     22 O6           7.0970    -0.7570     3.0930 oh         1 7LP      -0.674000
     23 C32          6.3210    -2.2990     1.3440 c6         1 7LP       0.115300
     24 O5           5.1730    -2.6910     2.1350 oh         1 7LP      -0.712000
     25 C26          1.8640    -1.6320    -1.3530 c3         1 7LP       0.127300
     26 O3           1.5690    -2.8250    -2.1130 oh         1 7LP      -0.644000
     27 C25          0.5670    -0.7510    -1.1950 c3         1 7LP       0.136300
     28 O2           0.7970     0.3090    -0.2470 oh         1 7LP      -0.647000
     29 C24         -0.6840    -1.5450    -0.7230 c3         1 7LP      -0.110400
     30 C23         -1.9810    -0.7010    -0.6340 c3         1 7LP      -0.063400
     31 C22         -3.2150    -1.5360    -0.2190 c3         1 7LP      -0.157400
     32 C21         -4.4810    -0.6750    -0.1460 c          1 7LP       0.596100
     33 N1          -5.3810    -0.8760    -1.1690 ns         1 7LP      -0.513900
     34 C19         -6.6750    -0.2010    -1.2900 c3         1 7LP       0.106000
     35 C18         -7.7470    -0.8300    -0.3760 c3         1 7LP      -0.095400
     36 C17         -9.1250    -0.1460    -0.5080 c3         1 7LP      -0.072400
     37 C16        -10.2010    -0.7730     0.4050 c3         1 7LP      -0.075400
     38 C15        -11.5800    -0.0890     0.2720 c3         1 7LP      -0.073400
     39 C14        -12.6570    -0.7140     1.1830 c3         1 7LP      -0.031100
     40 C13        -14.0060    -0.0230     1.0320 ca         1 7LP      -0.078300
     41 C8         -14.9320    -0.4740     0.0720 ca         1 7LP      -0.107500
     42 C9         -16.1750     0.1670    -0.0700 ca         1 7LP      -0.109000
     43 C10        -16.4980     1.2650     0.7450 ca         1 7LP      -0.111000
     44 C11        -15.5770     1.7210     1.7030 ca         1 7LP      -0.109000
     45 C12        -14.3340     1.0800     1.8460 ca         1 7LP      -0.107500
     46 N2           3.2830     0.4590    -1.5380 ns         1 7LP      -0.494900
     47 H1           5.5580     1.9020     0.2120 hc         1 7LP       0.057200
     48 H2           6.3970     2.6380    -1.1550 hc         1 7LP       0.057200
     49 H3           3.3870     2.7930    -0.6070 hc         1 7LP       0.053700
     50 H4           4.2290     3.5420    -2.0080 hc         1 7LP       0.053700
     51 H5           8.7010     7.5610     2.9650 hc         1 7LP       0.031033
     52 H6           7.8350     6.8200     4.3320 hc         1 7LP       0.031033
     53 H7           9.5990     6.6530     4.2010 hc         1 7LP       0.031033
     54 H8           9.3490     5.2700     2.1450 hc         1 7LP       0.036700
     55 H9           8.4910     4.5360     3.4990 hc         1 7LP       0.036700
     56 H10          6.3280     5.4990     2.6510 hc         1 7LP       0.036200
     57 H11          7.1860     6.2330     1.2960 hc         1 7LP       0.036200
     58 H12          7.8690     3.9520     0.4930 hc         1 7LP       0.038700
     59 H13          7.0120     3.2180     1.8480 hc         1 7LP       0.038700
     60 H14          5.7050     4.9120    -0.3550 hc         1 7LP       0.034200
     61 H15          4.8490     4.1780     1.0030 hc         1 7LP       0.034200
     62 H16          2.8610    -0.8330    -3.1000 h1         1 7LP       0.080700
     63 H17          4.2030    -2.7930    -2.1950 h1         1 7LP       0.053200
     64 H18          5.1540    -1.3460    -2.5690 h1         1 7LP       0.053200
     65 H19          5.8780    -3.4820    -0.4330 h2         1 7LP       0.069700
     66 H20          6.6480     0.0890    -0.9280 h1         1 7LP       0.056700
     67 H21          8.9120     0.9290    -1.4690 h1         1 7LP       0.035700
     68 H22          9.5590    -0.7160    -1.4260 h1         1 7LP       0.035700
     69 H23          9.1470    -0.0810    -3.5800 ho         1 7LP       0.504000
     70 H24          8.0360     0.7410     0.9810 h1         1 7LP       0.048700
     71 H25          9.0400    -1.1260     2.1590 ho         1 7LP       0.521000
     72 H26          5.8650    -0.1820     1.5110 h1         1 7LP       0.061700
     73 H27          6.4320    -1.3120     3.5650 ho         1 7LP       0.468000
     74 H28          7.1690    -2.9620     1.5710 h1         1 7LP       0.064700
     75 H29          4.3810    -2.3930     1.6250 ho         1 7LP       0.512000
     76 H30          2.1730    -1.9210    -0.3390 h1         1 7LP       0.084700
     77 H31          1.1440    -2.5490    -2.9540 ho         1 7LP       0.439000
     78 H32          0.3410    -0.3170    -2.1800 h1         1 7LP       0.077700
     79 H33          0.4730    -0.0070     0.6240 ho         1 7LP       0.437000
     80 H34         -0.8730    -2.3710    -1.4190 hc         1 7LP       0.047200
     81 H35         -0.4790    -2.0040     0.2530 hc         1 7LP       0.047200
     82 H36         -1.8460     0.1160     0.0880 hc         1 7LP       0.062700
     83 H37         -2.1740    -0.2330    -1.6080 hc         1 7LP       0.062700
     84 H38         -3.3520    -2.3420    -0.9510 hc         1 7LP       0.053200
     85 H39         -3.0260    -1.9660     0.7720 hc         1 7LP       0.053200
     86 H40         -5.1230    -1.5540    -1.8760 hn         1 7LP       0.309500
     87 H41         -6.5520     0.8620    -1.0400 h1         1 7LP       0.051700
     88 H42         -7.0040    -0.2650    -2.3360 h1         1 7LP       0.051700
     89 H43         -7.8470    -1.8940    -0.6210 hc         1 7LP       0.041200
     90 H44         -7.4140    -0.7700     0.6680 hc         1 7LP       0.041200
     91 H45         -9.0230     0.9200    -0.2650 hc         1 7LP       0.044200
     92 H46         -9.4580    -0.2050    -1.5520 hc         1 7LP       0.044200
     93 H47        -10.3020    -1.8390     0.1620 hc         1 7LP       0.037700
     94 H48         -9.8680    -0.7130     1.4490 hc         1 7LP       0.037700
     95 H49        -11.4800     0.9760     0.5150 hc         1 7LP       0.044200
     96 H50        -11.9140    -0.1500    -0.7710 hc         1 7LP       0.044200
     97 H51        -12.7540    -1.7820     0.9480 hc         1 7LP       0.045200
     98 H52        -12.3220    -0.6610     2.2270 hc         1 7LP       0.045200
     99 H53        -14.6890    -1.3220    -0.5650 ha         1 7LP       0.110000
    100 H54        -16.8870    -0.1860    -0.8130 ha         1 7LP       0.111000
    101 H55        -17.4600     1.7610     0.6350 ha         1 7LP       0.112000
    102 H56        -15.8250     2.5720     2.3340 ha         1 7LP       0.111000
    103 H57        -13.6250     1.4410     2.5880 ha         1 7LP       0.110000
    104 H58          2.7470     0.7460    -0.7250 hn         1 7LP       0.314500
@<TRIPOS>BOND
     1     1     2 1   
     2     1     8 1   
     3     1    47 1   
     4     1    48 1   
     5     2     9 1   
     6     2    49 1   
     7     2    50 1   
     8     3    32 2   
     9     4     5 1   
    10     4    51 1   
    11     4    52 1   
    12     4    53 1   
    13     5     6 1   
    14     5    54 1   
    15     5    55 1   
    16     6     7 1   
    17     6    56 1   
    18     6    57 1   
    19     7     8 1   
    20     7    58 1   
    21     7    59 1   
    22     8    60 1   
    23     8    61 1   
    24     9    10 2   
    25     9    46 1   
    26    11    12 1   
    27    11    25 1   
    28    11    46 1   
    29    11    62 1   
    30    12    13 1   
    31    12    63 1   
    32    12    64 1   
    33    13    14 1   
    34    14    15 1   
    35    14    23 1   
    36    14    65 1   
    37    15    16 1   
    38    16    17 1   
    39    16    19 1   
    40    16    66 1   
    41    17    18 1   
    42    17    67 1   
    43    17    68 1   
    44    18    69 1   
    45    19    20 1   
    46    19    21 1   
    47    19    70 1   
    48    20    71 1   
    49    21    22 1   
    50    21    23 1   
    51    21    72 1   
    52    22    73 1   
    53    23    24 1   
    54    23    74 1   
    55    24    75 1   
    56    25    26 1   
    57    25    27 1   
    58    25    76 1   
    59    26    77 1   
    60    27    28 1   
    61    27    29 1   
    62    27    78 1   
    63    28    79 1   
    64    29    30 1   
    65    29    80 1   
    66    29    81 1   
    67    30    31 1   
    68    30    82 1   
    69    30    83 1   
    70    31    32 1   
    71    31    84 1   
    72    31    85 1   
    73    32    33 1   
    74    33    34 1   
    75    33    86 1   
    76    34    35 1   
    77    34    87 1   
    78    34    88 1   
    79    35    36 1   
    80    35    89 1   
    81    35    90 1   
    82    36    37 1   
    83    36    91 1   
    84    36    92 1   
    85    37    38 1   
    86    37    93 1   
    87    37    94 1   
    88    38    39 1   
    89    38    95 1   
    90    38    96 1   
    91    39    40 1   
    92    39    97 1   
    93    39    98 1   
    94    40    41 ar  
    95    40    45 ar  
    96    41    42 ar  
    97    41    99 1   
    98    42    43 ar  
    99    42   100 1   
   100    43    44 ar  
   101    43   101 1   
   102    44    45 ar  
   103    44   102 1   
   104    45   103 1   
   105    46   104 1   
@<TRIPOS>SUBSTRUCTURE
     1 7LP         1 TEMP              0 ****  ****    0 ROOT
