@<TRIPOS>MOLECULE
7LQ
   22    22     1     0     0
SMALL
abcg2


@<TRIPOS>ATOM
      1 O4           0.2820     2.0660     0.0610 oh         1 7LQ      -0.666000
      2 C4           0.3950     0.6980    -0.2570 c6         1 7LQ       0.178300
      3 C3           1.6470     0.0940     0.3670 c6         1 7LQ       0.168500
      4 O3           2.7620     0.7100    -0.2550 oh         1 7LQ      -0.668000
      5 C2           1.6670    -1.3980     0.1910 c2         1 7LQ      -0.261200
      6 C1           0.5770    -2.1050    -0.0880 c2         1 7LQ      -0.194200
      7 C7          -0.7820    -1.4970    -0.2450 c6         1 7LQ      -0.045200
      8 C5          -0.8440    -0.0440     0.2330 c6         1 7LQ      -0.056700
      9 C6          -2.1220     0.6360    -0.2360 c3         1 7LQ       0.169600
     10 O6          -3.2260    -0.1240     0.2070 oh         1 7LQ      -0.669000
     11 H1           1.0900     2.5020    -0.2310 ho         1 7LQ       0.458000
     12 H2           0.4670     0.5610    -1.3500 h1         1 7LQ       0.046700
     13 H3           1.6400     0.3330     1.4420 h1         1 7LQ       0.048700
     14 H4           3.5350     0.5740     0.3010 ho         1 7LQ       0.448000
     15 H5           2.6230    -1.8970     0.3150 ha         1 7LQ       0.176000
     16 H6           0.6540    -3.1790    -0.2150 ha         1 7LQ       0.176000
     17 H7          -1.0780    -1.5560    -1.3000 hc         1 7LQ       0.061200
     18 H8          -1.5130    -2.1010     0.2950 hc         1 7LQ       0.061200
     19 H9          -0.8310    -0.0380     1.3310 hc         1 7LQ       0.068700
     20 H10         -2.1690     1.6570     0.1550 h1         1 7LQ       0.029700
     21 H11         -2.1030     0.7100    -1.3330 h1         1 7LQ       0.029700
     22 H12         -4.0280     0.3350    -0.0580 ho         1 7LQ       0.443000
@<TRIPOS>BOND
     1     1     2 1   
     2     1    11 1   
     3     2     3 1   
     4     2     8 1   
     5     2    12 1   
     6     3     4 1   
     7     3     5 1   
     8     3    13 1   
     9     4    14 1   
    10     5     6 2   
    11     5    15 1   
    12     6     7 1   
    13     6    16 1   
    14     7     8 1   
    15     7    17 1   
    16     7    18 1   
    17     8     9 1   
    18     8    19 1   
    19     9    10 1   
    20     9    20 1   
    21     9    21 1   
    22    10    22 1   
@<TRIPOS>SUBSTRUCTURE
     1 7LQ         1 TEMP              0 ****  ****    0 ROOT
