@<TRIPOS>MOLECULE
7LQ
   22    22     1     0     0
SMALL
No Charge or Current Charge


@<TRIPOS>ATOM
      1 O4           0.3030     2.1450     0.0650 oh         1 7LQ      -0.666000
      2 C4           0.3790     0.7490    -0.2660 c6         1 7LQ       0.178300
      3 C3           1.6750     0.1360     0.3550 c6         1 7LQ       0.168500
      4 O3           2.8420     0.7340    -0.2200 oh         1 7LQ      -0.668000
      5 C2           1.7270    -1.3680     0.1610 c2         1 7LQ      -0.261200
      6 C1           0.6330    -2.1110    -0.0810 c2         1 7LQ      -0.194200
      7 C7          -0.7710    -1.5280    -0.2160 c6         1 7LQ      -0.045200
      8 C5          -0.8740    -0.0330     0.2250 c6         1 7LQ      -0.056700
      9 C6          -2.2070     0.6140    -0.2640 c3         1 7LQ       0.169600
     10 O6          -3.3600    -0.0830     0.2310 oh         1 7LQ      -0.669000
     11 H1           1.2190     2.4820    -0.0600 ho         1 7LQ       0.458000
     12 H2           0.4400     0.6360    -1.3600 h1         1 7LQ       0.046700
     13 H3           1.6550     0.3310     1.4390 h1         1 7LQ       0.048700
     14 H4           3.6150     0.3480     0.2470 ho         1 7LQ       0.448000
     15 H5           2.7070    -1.8410     0.2460 ha         1 7LQ       0.176000
     16 H6           0.7160    -3.1940    -0.2040 ha         1 7LQ       0.176000
     17 H7          -1.0880    -1.6290    -1.2630 hc         1 7LQ       0.061200
     18 H8          -1.4730    -2.1330     0.3740 hc         1 7LQ       0.061200
     19 H9          -0.8930     0.0070     1.3220 hc         1 7LQ       0.068700
     20 H10         -2.2390     1.6590     0.0720 h1         1 7LQ       0.029700
     21 H11         -2.2110     0.6210    -1.3620 h1         1 7LQ       0.029700
     22 H12         -4.1500     0.3940    -0.1100 ho         1 7LQ       0.443000
@<TRIPOS>BOND
     1     1     2 1   
     2     1    11 1   
     3     2     3 1   
     4     2     8 1   
     5     2    12 1   
     6     3     4 1   
     7     3     5 1   
     8     3    13 1   
     9     4    14 1   
    10     5     6 2   
    11     5    15 1   
    12     6     7 1   
    13     6    16 1   
    14     7     8 1   
    15     7    17 1   
    16     7    18 1   
    17     8     9 1   
    18     8    19 1   
    19     9    10 1   
    20     9    20 1   
    21     9    21 1   
    22    10    22 1   
@<TRIPOS>SUBSTRUCTURE
     1 7LQ         1 TEMP              0 ****  ****    0 ROOT
