@<TRIPOS>MOLECULE
7LR
   49    51     1     0     0
SMALL
No Charge or Current Charge


@<TRIPOS>ATOM
      1 N3           6.3670    -0.5910     0.9690 na         1 7LR      -0.347600
      2 C4           7.2590     0.4530     1.0280 cc         1 7LR       0.623700
      3 C6          -2.7580    -0.4040     0.1420 ca         1 7LR       0.252000
      4 C7           5.3320    -0.1510     0.2010 ca         1 7LR      -0.059200
      5 C8          -3.4280     1.4810     1.6930 c3         1 7LR       0.149800
      6 C10          1.3980    -1.8540    -1.2730 c          1 7LR       0.607100
      7 C13          4.1540    -0.7990    -0.1860 ca         1 7LR      -0.134000
      8 C17         -1.7080    -0.5690    -0.7820 ca         1 7LR      -0.065000
      9 C20         -2.5910    -2.7650     0.7150 ca         1 7LR       0.116000
     10 C22          0.0380    -1.9970    -1.9690 c3         1 7LR      -0.117100
     11 C26         -1.5520    -2.9280    -0.2150 ca         1 7LR      -0.064000
     12 S1          -4.2580     1.5920    -0.9480 s6         1 7LR       1.237100
     13 N2          -3.3650     0.8490     0.3370 nh         1 7LR      -0.796300
     14 N5           6.8710     1.5300     0.3540 nd         1 7LR      -0.632100
     15 C9           5.6400     1.1300    -0.1680 ca         1 7LR       0.078400
     16 C11         -3.1890    -1.5090     0.8950 ca         1 7LR      -0.100000
     17 C12         -2.8200     2.9110     1.8540 c          1 7LR       0.595100
     18 O14         -4.9520     2.7520    -0.3800 o          1 7LR      -0.530500
     19 O15         -3.3400     1.7610    -2.0770 o          1 7LR      -0.530500
     20 C16         -1.1020    -1.8280    -0.9690 ca         1 7LR      -0.059300
     21 C19          3.2430    -0.0820    -1.0010 ca         1 7LR      -0.021000
     22 O21          1.8680    -2.7650    -0.5990 o          1 7LR      -0.584100
     23 O23         -1.8680     3.3310     1.2100 o          1 7LR      -0.600100
     24 N24          8.4070     0.3810     1.7010 nv         1 7LR      -1.007200
     25 C25          4.7590     1.8640    -0.9730 ca         1 7LR      -0.037000
     26 C27         -5.4770     0.3650    -1.3780 c3         1 7LR      -0.362100
     27 N28         -3.4000     3.7130     2.7810 nt         1 7LR      -0.602000
     28 C29          3.5570     1.2470    -1.3870 ca         1 7LR      -0.175000
     29 H1           6.4650    -1.4870     1.4220 hn         1 7LR       0.356000
     30 H2          -4.4740     1.5280     2.0230 h1         1 7LR       0.074700
     31 H3          -2.9060     0.8510     2.4250 h1         1 7LR       0.074700
     32 H4           3.9700    -1.8180     0.1410 ha         1 7LR       0.150000
     33 H5          -1.3530     0.2890    -1.3440 ha         1 7LR       0.154000
     34 H6          -0.0570    -1.2400    -2.7570 hc         1 7LR       0.073200
     35 H7          -0.0180    -2.9940    -2.4220 hc         1 7LR       0.073200
     36 H8          -1.0940    -3.9060    -0.3420 ha         1 7LR       0.137000
     37 H10         -3.9950    -1.3960     1.6130 ha         1 7LR       0.131000
     38 H11          1.4810     0.0160    -2.0440 hn         1 7LR       0.152000
     39 H12          8.7770    -0.5420     1.8970 hn         1 7LR       0.472500
     40 H13          9.0870     1.1050     1.4980 hn         1 7LR       0.472500
     41 H14          4.9970     2.8820    -1.2710 ha         1 7LR       0.129000
     42 H15         -4.9420    -0.5260    -1.7220 h1         1 7LR       0.102033
     43 H16         -6.0620     0.1570    -0.4780 h1         1 7LR       0.102033
     44 H17         -6.1000     0.7870    -2.1720 h1         1 7LR       0.102033
     45 H18         -4.1880     3.3850     3.3200 hn         1 7LR       0.317500
     46 H19         -3.0400     4.6460     2.9170 hn         1 7LR       0.317500
     47 H20          2.8660     1.8070    -2.0130 ha         1 7LR       0.110000
     48 N18          2.0110    -0.6220    -1.4650 ns         1 7LR      -0.140000
     49 Cl1         -3.1460    -4.1420     1.6590 cl         1 7LR      -0.196000
@<TRIPOS>BOND
     1     1     2 1   
     2     1     4 1   
     3     1    29 1   
     4     2    14 2   
     5     2    24 1   
     6     3     8 ar  
     7     3    13 1   
     8     3    16 ar  
     9     4     7 ar  
    10     4    15 ar  
    11     5    13 1   
    12     5    17 1   
    13     5    30 1   
    14     5    31 1   
    15     6    10 1   
    16     6    22 2   
    17     6    48 1   
    18     7    21 ar  
    19     7    32 1   
    20     8    20 ar  
    21     8    33 1   
    22     9    11 ar  
    23     9    16 ar  
    24     9    49 1   
    25    10    20 1   
    26    10    34 1   
    27    10    35 1   
    28    11    20 ar  
    29    11    36 1   
    30    12    13 1   
    31    12    18 2   
    32    12    19 2   
    33    12    26 1   
    34    14    15 1   
    35    15    25 ar  
    36    16    37 1   
    37    17    23 2   
    38    17    27 1   
    39    21    28 ar  
    40    21    48 1   
    41    24    39 1   
    42    24    40 1   
    43    25    28 ar  
    44    25    41 1   
    45    26    42 1   
    46    26    43 1   
    47    26    44 1   
    48    27    45 1   
    49    27    46 1   
    50    28    47 1   
    51    38    48 1   
@<TRIPOS>SUBSTRUCTURE
     1 7LR         1 TEMP              0 ****  ****    0 ROOT
