@<TRIPOS>MOLECULE
7LR
   49    51     1     0     0
SMALL
abcg2


@<TRIPOS>ATOM
      1 N3           6.2650    -0.3790     1.4050 na         1 7LR      -0.347600
      2 C4           7.4130     0.3430     1.2560 cc         1 7LR       0.623700
      3 C6          -3.0470    -0.5100     0.0580 ca         1 7LR       0.252000
      4 C7           5.4300    -0.0280     0.3720 ca         1 7LR      -0.059200
      5 C8          -3.6130     1.3300     1.6390 c3         1 7LR       0.149800
      6 C10          1.3630    -1.0020    -1.0340 c          1 7LR       0.607100
      7 C13          4.1540    -0.4500     0.0410 ca         1 7LR      -0.134000
      8 C17         -1.9160    -0.3080    -0.7220 ca         1 7LR      -0.065000
      9 C20         -2.5650    -2.8460     0.1430 ca         1 7LR       0.116000
     10 C22          0.1220    -1.1570    -1.9020 c3         1 7LR      -0.117100
     11 C26         -1.4360    -2.6600    -0.6360 ca         1 7LR      -0.064000
     12 S1          -4.9710     1.1630    -0.6630 s6         1 7LR       1.237100
     13 N2          -3.8830     0.5750     0.4370 nh         1 7LR      -0.796300
     14 N5           7.3930     1.1310     0.2110 nd         1 7LR      -0.632100
     15 C9           6.1590     0.9210    -0.3620 ca         1 7LR       0.078400
     16 C11         -3.3810    -1.7850     0.4980 ca         1 7LR      -0.100000
     17 C12         -2.8160     2.6050     1.3800 c          1 7LR       0.595100
     18 O14         -5.4270     2.4460    -0.1490 o          1 7LR      -0.530500
     19 O15         -4.4100     1.0830    -2.0020 o          1 7LR      -0.530500
     20 C16         -1.1090    -1.3820    -1.0760 ca         1 7LR      -0.059300
     21 C19          3.5860     0.1230    -1.0980 ca         1 7LR      -0.021000
     22 O21          1.4800    -1.5890     0.0280 o          1 7LR      -0.584100
     23 O23         -2.2870     2.8320     0.3050 o          1 7LR      -0.600100
     24 N24          8.4190     0.2650     2.1630 nv         1 7LR      -1.007200
     25 C25          5.5760     1.4770    -1.4940 ca         1 7LR      -0.037000
     26 C27         -6.3210     0.0110    -0.5810 c3         1 7LR      -0.362100
     27 N28         -2.7350     3.4150     2.4410 nt         1 7LR      -0.602000
     28 C29          4.3000     1.0730    -1.8470 ca         1 7LR      -0.175000
     29 H1           6.0640    -1.0280     2.1480 hn         1 7LR       0.356000
     30 H2          -4.5370     1.5620     2.1730 h1         1 7LR       0.074700
     31 H3          -3.0340     0.6880     2.3050 h1         1 7LR       0.074700
     32 H4           3.6330    -1.1810     0.6370 ha         1 7LR       0.150000
     33 H5          -1.6650     0.6930    -1.0440 ha         1 7LR       0.154000
     34 H6          -0.0110    -0.2910    -2.5530 hc         1 7LR       0.073200
     35 H7           0.3020    -2.0110    -2.5600 hc         1 7LR       0.073200
     36 H8          -0.8190    -3.5060    -0.9100 ha         1 7LR       0.137000
     37 H10         -4.2620    -1.9370     1.1070 ha         1 7LR       0.131000
     38 H11          2.0590     0.2450    -2.4460 hn         1 7LR       0.152000
     39 H12          8.5220    -0.6040     2.6630 hn         1 7LR       0.472500
     40 H13          9.2960     0.6540     1.8580 hn         1 7LR       0.472500
     41 H14          6.1030     2.2110    -2.0910 ha         1 7LR       0.129000
     42 H15         -5.9720    -0.9780    -0.8680 h1         1 7LR       0.102033
     43 H16         -6.7160    -0.0060     0.4320 h1         1 7LR       0.102033
     44 H17         -7.0900     0.3440    -1.2770 h1         1 7LR       0.102033
     45 H18         -3.2110     3.2140     3.3040 hn         1 7LR       0.317500
     46 H19         -2.2080     4.2720     2.3930 hn         1 7LR       0.317500
     47 H20          3.8380     1.5030    -2.7280 ha         1 7LR       0.110000
     48 N18          2.3040    -0.1980    -1.5730 ns         1 7LR      -0.140000
     49 CL1         -2.9730    -4.4420     0.6810 cl         1 7LR      -0.196000
@<TRIPOS>BOND
     1     1     2 1   
     2     1     4 1   
     3     1    29 1   
     4     2    14 2   
     5     2    24 1   
     6     3     8 ar  
     7     3    13 1   
     8     3    16 ar  
     9     4     7 ar  
    10     4    15 ar  
    11     5    13 1   
    12     5    17 1   
    13     5    30 1   
    14     5    31 1   
    15     6    10 1   
    16     6    22 2   
    17     6    48 1   
    18     7    21 ar  
    19     7    32 1   
    20     8    20 ar  
    21     8    33 1   
    22     9    11 ar  
    23     9    16 ar  
    24     9    49 1   
    25    10    20 1   
    26    10    34 1   
    27    10    35 1   
    28    11    20 ar  
    29    11    36 1   
    30    12    13 1   
    31    12    18 2   
    32    12    19 2   
    33    12    26 1   
    34    14    15 1   
    35    15    25 ar  
    36    16    37 1   
    37    17    23 2   
    38    17    27 1   
    39    21    28 ar  
    40    21    48 1   
    41    24    39 1   
    42    24    40 1   
    43    25    28 ar  
    44    25    41 1   
    45    26    42 1   
    46    26    43 1   
    47    26    44 1   
    48    27    45 1   
    49    27    46 1   
    50    28    47 1   
    51    38    48 1   
@<TRIPOS>SUBSTRUCTURE
     1 7LR         1 TEMP              0 ****  ****    0 ROOT
