@<TRIPOS>MOLECULE
7LS
   56    60     1     0     0
SMALL
abcg2


@<TRIPOS>ATOM
      1 C1          -4.9880     1.0570    -0.1260 ca         1 7LS       0.319000
      2 C2          -6.5740    -0.7290    -0.2750 ca         1 7LS       0.344000
      3 C3          -5.5450    -1.6860    -0.2860 ca         1 7LS      -0.223600
      4 C4           1.5450     0.2210     0.0780 c          1 7LS       0.722400
      5 O1           1.7110    -0.9860     0.0520 o          1 7LS      -0.521000
      6 C5          -2.5940     0.6540    -0.0620 ca         1 7LS      -0.028000
      7 C6          -3.9080     0.1680    -0.1320 ca         1 7LS      -0.195600
      8 C7          -4.1430    -1.2760    -0.2130 c          1 7LS       0.598300
      9 O2          -3.2240    -2.0890    -0.2190 o          1 7LS      -0.534100
     10 C8          -5.8870    -3.0450    -0.3690 ca         1 7LS      -0.014000
     11 C9          -7.2000    -3.4430    -0.4390 ca         1 7LS      -0.168000
     12 C10         -8.2160    -2.4770    -0.4260 ca         1 7LS      -0.043000
     13 C11         -7.9150    -1.1390    -0.3450 ca         1 7LS      -0.191000
     14 N1          -6.2680     0.5950    -0.1950 na         1 7LS      -0.781000
     15 C12         -4.7370     2.4350    -0.0480 ca         1 7LS      -0.162000
     16 C13         -3.4500     2.8940     0.0180 ca         1 7LS      -0.099000
     17 C14         -2.3500     2.0120     0.0100 ca         1 7LS       0.247000
     18 N2          -1.0910     2.6140     0.0740 nu         1 7LS      -0.723200
     19 C15          0.1460     2.0780     0.0880 cc         1 7LS       0.782500
     20 C16          1.2490     2.9830     0.1360 cc         1 7LS      -0.485600
     21 C17          2.4750     2.4280     0.1550 cd         1 7LS       0.040600
     22 N3           0.3110     0.7790     0.0580 nd         1 7LS      -0.750100
     23 N4           2.6550     1.0840     0.1300 n          1 7LS      -0.299000
     24 C18          4.0060     0.5610     0.1980 c6         1 7LS       0.348700
     25 O3           4.2640    -0.1670    -0.9610 os         1 7LS      -0.424000
     26 C19          5.6140    -0.5780    -1.0840 c6         1 7LS       0.181300
     27 C20          5.7480    -1.3010    -2.4060 c3         1 7LS       0.171600
     28 O4           5.4580    -0.4000    -3.4480 oh         1 7LS      -0.711000
     29 C21          5.9940    -1.4660     0.1030 c6         1 7LS       0.112300
     30 O5           7.3520    -1.8090    -0.0260 oh         1 7LS      -0.719000
     31 C22          5.7310    -0.7070     1.4030 c6         1 7LS       0.096300
     32 O6           5.9850    -1.5140     2.5320 oh         1 7LS      -0.662000
     33 C23          4.2760    -0.2620     1.4570 c6         1 7LS       0.125300
     34 O7           4.0080     0.5700     2.5540 oh         1 7LS      -0.717000
     35 H1          -1.7780    -0.0500    -0.0680 ha         1 7LS       0.187000
     36 H2          -5.0930    -3.7800    -0.3780 ha         1 7LS       0.137000
     37 H3          -7.4500    -4.4940    -0.5030 ha         1 7LS       0.120000
     38 H4          -9.2520    -2.7840    -0.4810 ha         1 7LS       0.113000
     39 H5          -8.7030    -0.3960    -0.3360 ha         1 7LS       0.113000
     40 H6          -7.0220     1.2650    -0.1900 hn         1 7LS       0.342000
     41 H7          -5.5620     3.1360    -0.0410 ha         1 7LS       0.115000
     42 H8          -3.2800     3.9630     0.0750 ha         1 7LS       0.109000
     43 H9          -1.1160     3.6220     0.1040 hn         1 7LS       0.335000
     44 H10          1.1240     4.0550     0.1560 ha         1 7LS       0.202000
     45 H11          3.3690     3.0360     0.1880 h4         1 7LS       0.201000
     46 H12          4.6630     1.4430     0.2430 h2         1 7LS       0.038700
     47 H13          6.2740     0.3060    -1.0850 h1         1 7LS       0.055700
     48 H14          6.7670    -1.6950    -2.4810 h1         1 7LS       0.040200
     49 H15          5.0660    -2.1620    -2.4090 h1         1 7LS       0.040200
     50 H16          5.5800    -0.8640    -4.2820 ho         1 7LS       0.506000
     51 H17          5.3540    -2.3620     0.0850 h1         1 7LS       0.069700
     52 H18          7.5500    -2.5060     0.6070 ho         1 7LS       0.515000
     53 H19          6.3710     0.1880     1.4140 h1         1 7LS       0.048700
     54 H20          6.8700    -1.3310     2.8570 ho         1 7LS       0.451000
     55 H21          3.6380    -1.1530     1.4600 h1         1 7LS       0.097700
     56 H22          4.2250     0.0820     3.3550 ho         1 7LS       0.524000
@<TRIPOS>BOND
     1     1     7 ar  
     2     1    14 1   
     3     1    15 ar  
     4     2     3 ar  
     5     2    13 ar  
     6     2    14 1   
     7     3     8 1   
     8     3    10 ar  
     9     4     5 2   
    10     4    22 1   
    11     4    23 1   
    12     6     7 ar  
    13     6    17 ar  
    14     6    35 1   
    15     7     8 1   
    16     8     9 2   
    17    10    11 ar  
    18    10    36 1   
    19    11    12 ar  
    20    11    37 1   
    21    12    13 ar  
    22    12    38 1   
    23    13    39 1   
    24    14    40 1   
    25    15    16 ar  
    26    15    41 1   
    27    16    17 ar  
    28    16    42 1   
    29    17    18 1   
    30    18    19 1   
    31    18    43 1   
    32    19    20 1   
    33    19    22 2   
    34    20    21 2   
    35    20    44 1   
    36    21    23 1   
    37    21    45 1   
    38    23    24 1   
    39    24    25 1   
    40    24    33 1   
    41    24    46 1   
    42    25    26 1   
    43    26    27 1   
    44    26    29 1   
    45    26    47 1   
    46    27    28 1   
    47    27    48 1   
    48    27    49 1   
    49    28    50 1   
    50    29    30 1   
    51    29    31 1   
    52    29    51 1   
    53    30    52 1   
    54    31    32 1   
    55    31    33 1   
    56    31    53 1   
    57    32    54 1   
    58    33    34 1   
    59    33    55 1   
    60    34    56 1   
@<TRIPOS>SUBSTRUCTURE
     1 7LS         1 TEMP              0 ****  ****    0 ROOT
