@<TRIPOS>MOLECULE
7LS
   56    60     1     0     0
SMALL
No Charge or Current Charge


@<TRIPOS>ATOM
      1 C1          -4.9720     0.9610    -0.5630 ca         1 7LS       0.319000
      2 C2          -6.6390    -0.7850    -0.5770 ca         1 7LS       0.344000
      3 C3          -5.7920    -1.6850     0.0830 ca         1 7LS      -0.223600
      4 C4           1.6150     0.2640     0.0940 c          1 7LS       0.722400
      5 O1           1.7640    -0.9220    -0.1500 o          1 7LS      -0.521000
      6 C5          -2.7560     0.6610     0.4070 ca         1 7LS      -0.028000
      7 C6          -4.0380     0.1500     0.0950 ca         1 7LS      -0.195600
      8 C7          -4.4210    -1.2420     0.4600 c          1 7LS       0.598300
      9 O2          -3.6430    -1.9880     1.0440 o          1 7LS      -0.534100
     10 C8          -6.2460    -2.9880     0.3810 ca         1 7LS      -0.014000
     11 C9          -7.5440    -3.3810     0.0150 ca         1 7LS      -0.168000
     12 C10         -8.3920    -2.4790    -0.6470 ca         1 7LS      -0.043000
     13 C11         -7.9350    -1.1830    -0.9400 ca         1 7LS      -0.191000
     14 N1          -6.2410     0.5060    -0.8910 na         1 7LS      -0.781000
     15 C12         -4.6280     2.2790    -0.9020 ca         1 7LS      -0.162000
     16 C13         -3.3540     2.7880    -0.5910 ca         1 7LS      -0.099000
     17 C14         -2.4030     1.9800     0.0560 ca         1 7LS       0.247000
     18 N2          -1.1520     2.5270     0.3610 nu         1 7LS      -0.723200
     19 C15          0.1080     2.0160     0.3800 cc         1 7LS       0.782500
     20 C16          1.1390     2.9190     0.7160 cc         1 7LS      -0.485600
     21 C17          2.4340     2.4610     0.7340 cd         1 7LS       0.040600
     22 N3           0.3140     0.7690     0.0850 nd         1 7LS      -0.750100
     23 N4           2.6830     1.1310     0.4140 n          1 7LS      -0.299000
     24 C18          4.0890     0.6640     0.3690 c6         1 7LS       0.348700
     25 O3           4.3250     0.0030    -0.8930 os         1 7LS      -0.424000
     26 C19          5.7020    -0.4010    -1.1070 c6         1 7LS       0.181300
     27 C20          5.8150    -0.9940    -2.5510 c3         1 7LS       0.171600
     28 O4           5.3660    -0.0860    -3.5790 oh         1 7LS      -0.711000
     29 C21          6.1360    -1.4140     0.0070 c6         1 7LS       0.112300
     30 O5           7.5180    -1.8190    -0.1290 oh         1 7LS      -0.719000
     31 C22          5.9280    -0.7490     1.4010 c6         1 7LS       0.096300
     32 O6           6.2840    -1.6610     2.4540 oh         1 7LS      -0.662000
     33 C23          4.4600    -0.2710     1.5690 c6         1 7LS       0.125300
     34 O7           4.3120     0.3740     2.8540 oh         1 7LS      -0.717000
     35 H1          -2.0380     0.0370     0.9310 ha         1 7LS       0.187000
     36 H2          -5.5980    -3.6980     0.8940 ha         1 7LS       0.137000
     37 H3          -7.8930    -4.3850     0.2440 ha         1 7LS       0.120000
     38 H4          -9.3970    -2.7820    -0.9310 ha         1 7LS       0.113000
     39 H5          -8.5930    -0.4870    -1.4520 ha         1 7LS       0.113000
     40 H6          -6.8860     1.1250    -1.3650 hn         1 7LS       0.342000
     41 H7          -5.3500     2.9140    -1.4080 ha         1 7LS       0.115000
     42 H8          -3.1040     3.8110    -0.8600 ha         1 7LS       0.109000
     43 H9          -1.1300     3.5380     0.3840 hn         1 7LS       0.335000
     44 H10          0.8970     3.9480     0.9550 ha         1 7LS       0.202000
     45 H11          3.3110     3.0580     0.9810 h4         1 7LS       0.201000
     46 H12          4.7370     1.5510     0.4140 h2         1 7LS       0.038700
     47 H13          6.3420     0.4920    -1.0550 h1         1 7LS       0.055700
     48 H14          6.8630    -1.2680    -2.7290 h1         1 7LS       0.040200
     49 H15          5.2260    -1.9210    -2.5840 h1         1 7LS       0.040200
     50 H16          5.4110    -0.5730    -4.4350 ho         1 7LS       0.506000
     51 H17          5.4750    -2.2930    -0.0560 h1         1 7LS       0.069700
     52 H18          7.5420    -2.6260    -0.6970 ho         1 7LS       0.515000
     53 H19          6.5820     0.1360     1.4490 h1         1 7LS       0.048700
     54 H20          7.1190    -2.0880     2.1520 ho         1 7LS       0.451000
     55 H21          3.8080    -1.1570     1.5170 h1         1 7LS       0.097700
     56 H22          4.8730    -0.1620     3.4670 ho         1 7LS       0.524000
@<TRIPOS>BOND
     1     1     7 ar  
     2     1    14 1   
     3     1    15 ar  
     4     2     3 ar  
     5     2    13 ar  
     6     2    14 1   
     7     3     8 1   
     8     3    10 ar  
     9     4     5 2   
    10     4    22 1   
    11     4    23 1   
    12     6     7 ar  
    13     6    17 ar  
    14     6    35 1   
    15     7     8 1   
    16     8     9 2   
    17    10    11 ar  
    18    10    36 1   
    19    11    12 ar  
    20    11    37 1   
    21    12    13 ar  
    22    12    38 1   
    23    13    39 1   
    24    14    40 1   
    25    15    16 ar  
    26    15    41 1   
    27    16    17 ar  
    28    16    42 1   
    29    17    18 1   
    30    18    19 1   
    31    18    43 1   
    32    19    20 1   
    33    19    22 2   
    34    20    21 2   
    35    20    44 1   
    36    21    23 1   
    37    21    45 1   
    38    23    24 1   
    39    24    25 1   
    40    24    33 1   
    41    24    46 1   
    42    25    26 1   
    43    26    27 1   
    44    26    29 1   
    45    26    47 1   
    46    27    28 1   
    47    27    48 1   
    48    27    49 1   
    49    28    50 1   
    50    29    30 1   
    51    29    31 1   
    52    29    51 1   
    53    30    52 1   
    54    31    32 1   
    55    31    33 1   
    56    31    53 1   
    57    32    54 1   
    58    33    34 1   
    59    33    55 1   
    60    34    56 1   
@<TRIPOS>SUBSTRUCTURE
     1 7LS         1 TEMP              0 ****  ****    0 ROOT
