@<TRIPOS>MOLECULE
7LU
   30    32     1     0     0
SMALL
No Charge or Current Charge


@<TRIPOS>ATOM
      1 Cl1          4.5810     2.6540     0.7790 cl         1 7LU      -0.180000
      2 C16          3.5830     1.2430     0.4560 ca         1 7LU       0.215000
      3 C15          2.1950     1.3800     0.3370 ca         1 7LU      -0.195000
      4 C18          4.1770    -0.0150     0.3120 ca         1 7LU      -0.202000
      5 C19          3.3810    -1.1320     0.0480 ca         1 7LU       0.260100
      6 O20          3.9760    -2.3440    -0.0960 oh         1 7LU      -0.534100
      7 C21          1.9850    -1.0010    -0.0670 ca         1 7LU      -0.348600
      8 C02          1.1110    -2.1530    -0.3390 c          1 7LU       0.612900
      9 O01          1.5520    -3.2730    -0.5580 o          1 7LU      -0.592100
     10 C14          1.3860     0.2620     0.0840 ca         1 7LU       0.212100
     11 O13          0.0270     0.5010    -0.0510 os         1 7LU      -0.218200
     12 C04         -0.8030    -0.6080    -0.0680 cc         1 7LU       0.235900
     13 C03         -0.3020    -1.8690    -0.2970 cd         1 7LU      -0.390200
     14 C05         -2.2530    -0.3870    -0.0100 ca         1 7LU      -0.088800
     15 C12         -2.8090     0.8010    -0.5350 ca         1 7LU      -0.115000
     16 C10         -4.1970     1.0250    -0.4790 ca         1 7LU       0.034100
     17 O11         -4.7350     2.1780    -0.9950 oh         1 7LU      -0.556100
     18 C08         -5.0390     0.0610     0.1090 ca         1 7LU       0.155100
     19 O09         -6.3820     0.2850     0.1610 oh         1 7LU      -0.523100
     20 C07         -4.4970    -1.1170     0.6410 ca         1 7LU      -0.136000
     21 C06         -3.1100    -1.3410     0.5840 ca         1 7LU      -0.060000
     22 H151         1.7410     2.3610     0.4420 ha         1 7LU       0.148000
     23 H181         5.2540    -0.1210     0.4010 ha         1 7LU       0.153000
     24 H201         3.2420    -2.9780    -0.3020 ho         1 7LU       0.526000
     25 H031        -0.9370    -2.7320    -0.4400 ha         1 7LU       0.219000
     26 H121        -2.1600     1.5450    -0.9930 ha         1 7LU       0.129000
     27 H111        -4.0120     2.7360    -1.3630 ho         1 7LU       0.481000
     28 H091        -6.5220     1.1620    -0.2640 ho         1 7LU       0.490000
     29 H071        -5.1500    -1.8550     1.1000 ha         1 7LU       0.140000
     30 H061        -2.7050    -2.2530     1.0160 ha         1 7LU       0.128000
@<TRIPOS>BOND
     1     1     2 1   
     2     2     3 ar  
     3     2     4 ar  
     4     3    10 ar  
     5     3    22 1   
     6     4     5 ar  
     7     4    23 1   
     8     5     6 1   
     9     5     7 ar  
    10     6    24 1   
    11     7     8 1   
    12     7    10 ar  
    13     8     9 2   
    14     8    13 1   
    15    10    11 1   
    16    11    12 1   
    17    12    13 2   
    18    12    14 1   
    19    13    25 1   
    20    14    15 ar  
    21    14    21 ar  
    22    15    16 ar  
    23    15    26 1   
    24    16    17 1   
    25    16    18 ar  
    26    17    27 1   
    27    18    19 1   
    28    18    20 ar  
    29    19    28 1   
    30    20    21 ar  
    31    20    29 1   
    32    21    30 1   
@<TRIPOS>SUBSTRUCTURE
     1 7LU         1 TEMP              0 ****  ****    0 ROOT
