@<TRIPOS>MOLECULE
7LU
   30    32     1     0     0
SMALL
bcc


@<TRIPOS>ATOM
      1 CL1          4.3110     2.7740     0.0690 cl         1 7LU      -0.088400
      2 C16          3.3970     1.3100     0.0680 ca         1 7LU       0.123400
      3 C15          2.0170     1.3950     0.0470 ca         1 7LU      -0.213000
      4 C18          4.0840     0.1040     0.0880 ca         1 7LU      -0.220000
      5 C19          3.3590    -1.0800     0.0870 ca         1 7LU       0.260100
      6 O20          4.0050    -2.2390     0.1070 oh         1 7LU      -0.495100
      7 C21          1.9480    -1.0400     0.0660 ca         1 7LU      -0.348600
      8 C02          1.1500    -2.2540     0.0560 c          1 7LU       0.612900
      9 O01          1.6780    -3.3760     0.0710 o          1 7LU      -0.592100
     10 C14          1.3160     0.2000     0.0460 ca         1 7LU       0.212100
     11 O13         -0.0290     0.2840     0.0290 os         1 7LU      -0.218200
     12 C04         -0.8050    -0.8080     0.0140 cc         1 7LU       0.235900
     13 C03         -0.2690    -2.0540     0.0190 cd         1 7LU      -0.340200
     14 C05         -2.2290    -0.4860    -0.0140 ca         1 7LU      -0.088800
     15 C12         -2.6570     0.8310    -0.2280 ca         1 7LU      -0.133000
     16 C10         -4.0020     1.1380    -0.2590 ca         1 7LU       0.034100
     17 O11         -4.4910     2.3800    -0.4610 oh         1 7LU      -0.517100
     18 C08         -4.9610     0.1290    -0.0730 ca         1 7LU       0.155100
     19 O09         -6.2740     0.3930    -0.0970 oh         1 7LU      -0.484100
     20 C07         -4.5360    -1.1740     0.1430 ca         1 7LU      -0.154000
     21 C06         -3.1870    -1.4810     0.1740 ca         1 7LU      -0.078000
     22 H151         1.5010     2.3450     0.0320 ha         1 7LU       0.166000
     23 H181         5.1650     0.0780     0.1030 ha         1 7LU       0.171000
     24 H201         3.3260    -2.9580     0.1010 ho         1 7LU       0.487000
     25 H031        -0.9100    -2.9220    -0.0120 ha         1 7LU       0.169000
     26 H121        -1.9420     1.6300    -0.3770 ha         1 7LU       0.147000
     27 H111        -3.7810     3.0200    -0.5860 ho         1 7LU       0.442000
     28 H091        -6.4340     1.3320    -0.2560 ho         1 7LU       0.451000
     29 H071        -5.2740    -1.9520     0.2930 ha         1 7LU       0.158000
     30 H061        -2.9000    -2.5060     0.3610 ha         1 7LU       0.146000
@<TRIPOS>BOND
     1     1     2 1   
     2     2     3 ar  
     3     2     4 ar  
     4     3    10 ar  
     5     3    22 1   
     6     4     5 ar  
     7     4    23 1   
     8     5     6 1   
     9     5     7 ar  
    10     6    24 1   
    11     7     8 1   
    12     7    10 ar  
    13     8     9 2   
    14     8    13 1   
    15    10    11 1   
    16    11    12 1   
    17    12    13 2   
    18    12    14 1   
    19    13    25 1   
    20    14    15 ar  
    21    14    21 ar  
    22    15    16 ar  
    23    15    26 1   
    24    16    17 1   
    25    16    18 ar  
    26    17    27 1   
    27    18    19 1   
    28    18    20 ar  
    29    19    28 1   
    30    20    21 ar  
    31    20    29 1   
    32    21    30 1   
@<TRIPOS>SUBSTRUCTURE
     1 7LU         1 TEMP              0 ****  ****    0 ROOT
