@<TRIPOS>MOLECULE
7LV
   64    68     1     0     0
SMALL
No Charge or Current Charge


@<TRIPOS>ATOM
      1 C1          -1.2720    -6.3110    -0.1370 c3         1 7LV       0.150600
      2 C2          -1.9570    -3.9190    -0.0750 c3         1 7LV       0.168800
      3 C3          -0.5520    -3.2810    -0.3180 c6         1 7LV      -0.063700
      4 C4          -0.6930    -1.9190    -1.0510 c6         1 7LV      -0.068400
      5 C5           0.6800    -1.2490    -1.3130 c6         1 7LV      -0.092400
      6 C6           1.5200    -1.1210    -0.0060 c6         1 7LV       0.143700
      7 N1           2.8410    -0.4340    -0.2020 n          1 7LV      -0.227400
      8 C7           1.6420    -2.4790     0.7420 c6         1 7LV      -0.092400
      9 C8           0.2480    -3.1000     1.0050 c6         1 7LV      -0.068400
     10 N2           5.2110    -0.7270    -0.6190 n          1 7LV      -0.408800
     11 C24         -3.5880     3.1400    -1.3100 ca         1 7LV       0.041500
     12 C23         -4.1790     1.9370    -0.8670 ca         1 7LV       0.175100
     13 C22         -3.4150     1.0330    -0.1000 ca         1 7LV       0.041500
     14 Cl          -4.1230    -0.4760     0.4820 cl         1 7LV      -0.182500
     15 C21         -2.0780     1.3270     0.2130 ca         1 7LV      -0.034000
     16 C25         -2.2490     3.4290    -0.9930 ca         1 7LV      -0.034000
     17 C20         -1.4650     2.5240    -0.2330 cp         1 7LV      -0.174500
     18 C17         -0.0430     2.8270     0.1050 cp         1 7LV       0.418500
     19 C16          0.3650     4.1120     0.5060 ca         1 7LV      -0.142000
     20 C15          1.6980     4.3240     0.8800 ca         1 7LV      -0.052000
     21 N4           0.8280     1.7970     0.0610 nb         1 7LV      -0.653000
     22 C18          2.1320     1.9630     0.4230 ca         1 7LV       0.220000
     23 C14          2.6090     3.2530     0.8440 ca         1 7LV       0.241000
     24 N3           3.8930     3.5060     1.1810 nb         1 7LV      -0.666000
     25 C13          4.7830     2.5080     1.0720 ca         1 7LV       0.391900
     26 C19          3.0820     0.8820     0.3990 ca         1 7LV       0.070000
     27 C12          4.4310     1.2220     0.6470 ca         1 7LV      -0.222300
     28 C11          5.5290     0.1990     0.4700 c6         1 7LV       0.158300
     29 C10          6.3340    -1.3990    -1.3100 c3         1 7LV       0.093300
     30 C9           3.8880    -1.1400    -0.8570 c          1 7LV       0.613000
     31 O            3.6770    -2.0910    -1.5990 o          1 7LV      -0.561000
     32 N           -1.9760    -5.2400     0.6080 n3         1 7LV      -0.714600
     33 C           -3.3470    -5.6450     0.9910 c3         1 7LV       0.150600
     34 H1          -0.2100    -6.0700    -0.2690 h1         1 7LV       0.029700
     35 H2          -1.3270    -7.2620     0.4100 h1         1 7LV       0.029700
     36 H3          -1.7220    -6.4590    -1.1280 h1         1 7LV       0.029700
     37 H4          -2.5370    -3.2010     0.5200 h1         1 7LV       0.029200
     38 H5          -2.4630    -4.0040    -1.0470 h1         1 7LV       0.029200
     39 H6           0.0030    -3.9610    -0.9790 hc         1 7LV       0.054700
     40 H7          -1.2170    -2.0600    -2.0070 hc         1 7LV       0.043950
     41 H8          -1.3210    -1.2490    -0.4550 hc         1 7LV       0.043950
     42 H9           1.2190    -1.8420    -2.0620 hc         1 7LV       0.058700
     43 H10          0.5270    -0.2590    -1.7610 hc         1 7LV       0.058700
     44 H11          0.9300    -0.5130     0.6900 h1         1 7LV       0.060700
     45 H12         -5.7070     0.7810    -0.7740 ho         1 7LV       0.485000
     46 H13          2.2420    -3.1950     0.1680 hc         1 7LV       0.058700
     47 H14          2.1640    -2.3290     1.6970 hc         1 7LV       0.058700
     48 H15         -0.3180    -2.4630     1.6990 hc         1 7LV       0.043950
     49 H16          0.3750    -4.0690     1.5070 hc         1 7LV       0.043950
     50 H17         -1.5110     0.6290     0.8250 ha         1 7LV       0.143000
     51 H18         -1.8120     4.3570    -1.3540 ha         1 7LV       0.143000
     52 H19         -0.3520     4.9270     0.5500 ha         1 7LV       0.131000
     53 H20          2.0280     5.3110     1.1930 ha         1 7LV       0.140000
     54 H21          5.8180     2.7590     1.3030 h4         1 7LV       0.022100
     55 H22          5.6530    -0.3690     1.4030 h1         1 7LV       0.051700
     56 H23          6.4800     0.7100     0.2570 h1         1 7LV       0.051700
     57 H24          6.1850    -1.3490    -2.3960 h1         1 7LV       0.045033
     58 H25          7.2870    -0.9140    -1.0630 h1         1 7LV       0.045033
     59 H26          6.3810    -2.4510    -1.0010 h1         1 7LV       0.045033
     60 H28         -3.3290    -6.5790     1.5680 h1         1 7LV       0.029700
     61 H29         -3.8190    -4.8740     1.6150 h1         1 7LV       0.029700
     62 H30         -3.9730    -5.8000     0.1020 h1         1 7LV       0.029700
     63 O1          -5.4860     1.6500    -1.1730 oh         1 7LV      -0.504100
     64 Cl1         -4.5070     4.3030    -2.2690 cl         1 7LV      -0.182500
@<TRIPOS>BOND
     1     1    32 1   
     2     1    34 1   
     3     1    35 1   
     4     1    36 1   
     5     2     3 1   
     6     2    32 1   
     7     2    37 1   
     8     2    38 1   
     9     3     4 1   
    10     3     9 1   
    11     3    39 1   
    12     4     5 1   
    13     4    40 1   
    14     4    41 1   
    15     5     6 1   
    16     5    42 1   
    17     5    43 1   
    18     6     7 1   
    19     6     8 1   
    20     6    44 1   
    21     7    26 1   
    22     7    30 1   
    23     8     9 1   
    24     8    46 1   
    25     8    47 1   
    26     9    48 1   
    27     9    49 1   
    28    10    28 1   
    29    10    29 1   
    30    10    30 1   
    31    11    12 ar  
    32    11    16 ar  
    33    11    64 1   
    34    12    13 ar  
    35    12    63 1   
    36    13    14 1   
    37    13    15 ar  
    38    15    17 ar  
    39    15    50 1   
    40    16    17 ar  
    41    16    51 1   
    42    17    18 1   
    43    18    19 ar  
    44    18    21 ar  
    45    19    20 ar  
    46    19    52 1   
    47    20    23 ar  
    48    20    53 1   
    49    21    22 ar  
    50    22    23 ar  
    51    22    26 ar  
    52    23    24 ar  
    53    24    25 ar  
    54    25    27 ar  
    55    25    54 1   
    56    26    27 ar  
    57    27    28 1   
    58    28    55 1   
    59    28    56 1   
    60    29    57 1   
    61    29    58 1   
    62    29    59 1   
    63    30    31 2   
    64    32    33 1   
    65    33    60 1   
    66    33    61 1   
    67    33    62 1   
    68    45    63 1   
@<TRIPOS>SUBSTRUCTURE
     1 7LV         1 TEMP              0 ****  ****    0 ROOT
