@<TRIPOS>MOLECULE
7LV
   64    68     1     0     0
SMALL
abcg2


@<TRIPOS>ATOM
      1 C1          -0.9760    -6.3580     0.1650 c3         1 7LV       0.150600
      2 C2          -1.7880    -4.0910     0.2900 c3         1 7LV       0.168800
      3 C3          -0.4940    -3.4030    -0.1340 c6         1 7LV      -0.063700
      4 C4          -0.8150    -2.0540    -0.7740 c6         1 7LV      -0.068400
      5 C5           0.4420    -1.3250    -1.2400 c6         1 7LV      -0.092400
      6 C6           1.3980    -1.1380    -0.0680 c6         1 7LV       0.143700
      7 N1           2.6300    -0.3810    -0.3790 n          1 7LV      -0.227400
      8 C7           1.7320    -2.4700     0.6090 c6         1 7LV      -0.092400
      9 C8           0.4600    -3.1950     1.0380 c6         1 7LV      -0.068400
     10 N2           4.8900    -0.6070    -0.9210 n          1 7LV      -0.408800
     11 C24         -3.3600     3.7000    -1.4340 ca         1 7LV       0.041500
     12 C23         -4.0020     2.4650    -1.5310 ca         1 7LV       0.175100
     13 C22         -3.3100     1.3520    -1.0500 ca         1 7LV       0.041500
     14 CL          -4.0910    -0.1910    -1.1380 cl         1 7LV      -0.182500
     15 C21         -2.0460     1.4570    -0.5070 ca         1 7LV      -0.034000
     16 C25         -2.1000     3.8220    -0.8810 ca         1 7LV      -0.034000
     17 C20         -1.4250     2.6970    -0.4120 cp         1 7LV      -0.174500
     18 C17         -0.0730     2.8080     0.1710 cp         1 7LV       0.418500
     19 C16          0.2940     3.9750     0.8840 ca         1 7LV      -0.142000
     20 C15          1.5560     4.0700     1.3830 ca         1 7LV      -0.052000
     21 N4           0.7450     1.7960     0.0070 nb         1 7LV      -0.653000
     22 C18          1.9980     1.8670     0.4940 ca         1 7LV       0.220000
     23 C14          2.4710     3.0140     1.1790 ca         1 7LV       0.241000
     24 N3           3.7390     3.1700     1.6120 nb         1 7LV      -0.666000
     25 C13          4.5790     2.2060     1.3430 ca         1 7LV       0.391900
     26 C19          2.9330     0.8060     0.2790 ca         1 7LV       0.070000
     27 C12          4.2300     1.0190     0.6840 ca         1 7LV      -0.222300
     28 C11          5.2220    -0.0480     0.3740 c6         1 7LV       0.158300
     29 C10          5.9610    -1.2220    -1.6750 c3         1 7LV       0.093300
     30 C9           3.6140    -0.9990    -1.1560 c          1 7LV       0.613000
     31 O            3.3220    -1.8210    -2.0080 o          1 7LV      -0.561000
     32 N           -1.6050    -5.3490     0.9880 n3         1 7LV      -0.714600
     33 C           -2.8630    -5.8270     1.5170 c3         1 7LV       0.150600
     34 H1           0.0260    -6.0510    -0.1340 h1         1 7LV       0.029700
     35 H2          -0.8750    -7.2840     0.7320 h1         1 7LV       0.029700
     36 H3          -1.5430    -6.5880    -0.7520 h1         1 7LV       0.029700
     37 H4          -2.3260    -3.4130     0.9620 h1         1 7LV       0.029200
     38 H5          -2.4330    -4.2160    -0.6010 h1         1 7LV       0.029200
     39 H6           0.0140    -4.0130    -0.8930 hc         1 7LV       0.054700
     40 H7          -1.5010    -2.1830    -1.6160 hc         1 7LV       0.043950
     41 H8          -1.3490    -1.4450    -0.0350 hc         1 7LV       0.043950
     42 H9           0.9180    -1.9050    -2.0300 hc         1 7LV       0.058700
     43 H10          0.1870    -0.3490    -1.6570 hc         1 7LV       0.058700
     44 H11          0.8730    -0.5370     0.6760 h1         1 7LV       0.060700
     45 H12         -5.5470     1.5090    -2.1080 ho         1 7LV       0.485000
     46 H13          2.2970    -3.1140    -0.0690 hc         1 7LV       0.058700
     47 H14          2.3690    -2.2830     1.4780 hc         1 7LV       0.058700
     48 H15         -0.0540    -2.6120     1.8120 hc         1 7LV       0.043950
     49 H16          0.7230    -4.1520     1.4940 hc         1 7LV       0.043950
     50 H17         -1.5440     0.5780    -0.1330 ha         1 7LV       0.143000
     51 H18         -1.6400     4.8000    -0.8430 ha         1 7LV       0.143000
     52 H19         -0.4210     4.7700     1.0420 ha         1 7LV       0.131000
     53 H20          1.8830     4.9440     1.9320 ha         1 7LV       0.140000
     54 H21          5.6060     2.3420     1.6690 h4         1 7LV       0.022100
     55 H22          5.2330    -0.8220     1.1530 h1         1 7LV       0.051700
     56 H23          6.2280     0.3690     0.3260 h1         1 7LV       0.051700
     57 H24          5.6610    -1.3780    -2.7070 h1         1 7LV       0.045033
     58 H25          6.8230    -0.5570    -1.6670 h1         1 7LV       0.045033
     59 H26          6.2630    -2.1830    -1.2500 h1         1 7LV       0.045033
     60 H28         -2.7070    -6.7500     2.0790 h1         1 7LV       0.029700
     61 H29         -3.2900    -5.0900     2.1980 h1         1 7LV       0.029700
     62 H30         -3.6140    -6.0350     0.7370 h1         1 7LV       0.029700
     63 O1          -5.2180     2.4170    -2.0670 oh         1 7LV      -0.504100
     64 CL1         -4.1760     5.0960    -2.0350 cl         1 7LV      -0.182500
@<TRIPOS>BOND
     1     1    32 1   
     2     1    34 1   
     3     1    35 1   
     4     1    36 1   
     5     2     3 1   
     6     2    32 1   
     7     2    37 1   
     8     2    38 1   
     9     3     4 1   
    10     3     9 1   
    11     3    39 1   
    12     4     5 1   
    13     4    40 1   
    14     4    41 1   
    15     5     6 1   
    16     5    42 1   
    17     5    43 1   
    18     6     7 1   
    19     6     8 1   
    20     6    44 1   
    21     7    26 1   
    22     7    30 1   
    23     8     9 1   
    24     8    46 1   
    25     8    47 1   
    26     9    48 1   
    27     9    49 1   
    28    10    28 1   
    29    10    29 1   
    30    10    30 1   
    31    11    12 ar  
    32    11    16 ar  
    33    11    64 1   
    34    12    13 ar  
    35    12    63 1   
    36    13    14 1   
    37    13    15 ar  
    38    15    17 ar  
    39    15    50 1   
    40    16    17 ar  
    41    16    51 1   
    42    17    18 1   
    43    18    19 ar  
    44    18    21 ar  
    45    19    20 ar  
    46    19    52 1   
    47    20    23 ar  
    48    20    53 1   
    49    21    22 ar  
    50    22    23 ar  
    51    22    26 ar  
    52    23    24 ar  
    53    24    25 ar  
    54    25    27 ar  
    55    25    54 1   
    56    26    27 ar  
    57    27    28 1   
    58    28    55 1   
    59    28    56 1   
    60    29    57 1   
    61    29    58 1   
    62    29    59 1   
    63    30    31 2   
    64    32    33 1   
    65    33    60 1   
    66    33    61 1   
    67    33    62 1   
    68    45    63 1   
@<TRIPOS>SUBSTRUCTURE
     1 7LV         1 TEMP              0 ****  ****    0 ROOT
