@<TRIPOS>MOLECULE
7LX
   45    47     1     0     0
SMALL
bcc


@<TRIPOS>ATOM
      1 C4          -1.8350     0.7770     0.7940 ca         1 7LX      -0.124000
      2 C6           0.1660    -1.5400     1.4410 c          1 7LX       0.921600
      3 C7          -3.7130    -0.5000    -0.8110 ca         1 7LX       0.097100
      4 C8          -3.1490     1.2420     0.7530 ca         1 7LX      -0.191000
      5 C15          3.0860     1.1980    -0.1540 ca         1 7LX      -0.282000
      6 C17         -4.3740    -2.1930    -2.3290 c3         1 7LX       0.126700
      7 C20         -7.2870     2.3470     0.2630 c3         1 7LX      -0.090100
      8 C21          4.4770     1.0450    -0.2080 ca         1 7LX       0.055000
      9 C22          5.0450    -0.2520    -0.2860 ca         1 7LX      -0.225300
     10 C24          6.7320     1.8810    -0.2470 ca         1 7LX       0.377200
     11 C26          5.3910     2.1290    -0.1880 ca         1 7LX      -0.254300
     12 C1          -1.4460    -0.3050     0.0240 ca         1 7LX      -0.032300
     13 C2          -0.0330    -0.8280     0.0670 c3         1 7LX       0.103800
     14 C3          -2.4010    -0.9420    -0.7720 ca         1 7LX      -0.168000
     15 N5           0.8960     0.2500    -0.1780 nu         1 7LX      -0.723600
     16 C9           2.2420     0.0930    -0.1750 ca         1 7LX       0.264600
     17 C12         -4.0960     0.6180    -0.0420 ca         1 7LX       0.089100
     18 O13         -4.6910    -1.0580    -1.5510 os         1 7LX      -0.311900
     19 C14          2.8260    -1.2080    -0.2480 ca         1 7LX      -0.154000
     20 O16         -5.3860     0.9900    -0.1520 os         1 7LX      -0.315900
     21 C18          4.1780    -1.3680    -0.3040 ca         1 7LX      -0.079000
     22 C19         -5.8250     2.1280     0.5730 c3         1 7LX       0.142400
     23 N23          7.2750     0.6430    -0.3250 nb         1 7LX      -0.715000
     24 C25          6.4470    -0.3710    -0.3430 ca         1 7LX       0.440200
     25 H1          -1.1310     1.2750     1.4490 ha         1 7LX       0.147000
     26 H2          -3.4150     2.0980     1.3580 ha         1 7LX       0.122000
     27 H3           2.6640     2.1960    -0.0930 ha         1 7LX       0.121000
     28 H4          -4.0350    -3.0300    -1.7120 h1         1 7LX       0.033367
     29 H5          -5.2890    -2.4830    -2.8390 h1         1 7LX       0.033367
     30 H6          -3.6070    -1.9770    -3.0780 h1         1 7LX       0.033367
     31 H7          -7.4460     2.5360    -0.7990 hc         1 7LX       0.039367
     32 H8          -7.8900     1.4890     0.5590 hc         1 7LX       0.039367
     33 H9          -7.6460     3.2150     0.8150 hc         1 7LX       0.039367
     34 H10          7.4370     2.7040    -0.2320 h4         1 7LX      -0.004900
     35 H11          5.0300     3.1480    -0.1260 ha         1 7LX       0.125000
     36 H12          0.0730    -1.5790    -0.7230 h1         1 7LX       0.053700
     37 H13         -2.0940    -1.7930    -1.3650 ha         1 7LX       0.139000
     38 H14          0.5620     1.1860    -0.0170 hn         1 7LX       0.416800
     39 H16          2.1930    -2.0850    -0.2690 ha         1 7LX       0.154000
     40 H17          4.5970    -2.3650    -0.3640 ha         1 7LX       0.120000
     41 H18         -5.2380     3.0080     0.2870 h1         1 7LX       0.027200
     42 H19         -5.6810     1.9730     1.6480 h1         1 7LX       0.027200
     43 H20          6.8840    -1.3650    -0.4060 h4         1 7LX      -0.000900
     44 O10          0.7080    -0.8830     2.3420 o          1 7LX      -0.806800
     45 O11         -0.2840    -2.6990     1.4950 o          1 7LX      -0.806800
@<TRIPOS>BOND
     1     1     4 ar  
     2     1    12 ar  
     3     1    25 1   
     4     2    13 1   
     5     2    44 1   
     6     2    45 1   
     7     3    14 ar  
     8     3    17 ar  
     9     3    18 1   
    10     4    17 ar  
    11     4    26 1   
    12     5     8 ar  
    13     5    16 ar  
    14     5    27 1   
    15     6    18 1   
    16     6    28 1   
    17     6    29 1   
    18     6    30 1   
    19     7    22 1   
    20     7    31 1   
    21     7    32 1   
    22     7    33 1   
    23     8     9 ar  
    24     8    11 ar  
    25     9    21 ar  
    26     9    24 ar  
    27    10    11 ar  
    28    10    23 ar  
    29    10    34 1   
    30    11    35 1   
    31    12    13 1   
    32    12    14 ar  
    33    13    15 1   
    34    13    36 1   
    35    14    37 1   
    36    15    16 1   
    37    15    38 1   
    38    16    19 ar  
    39    17    20 1   
    40    19    21 ar  
    41    19    39 1   
    42    20    22 1   
    43    21    40 1   
    44    22    41 1   
    45    22    42 1   
    46    23    24 ar  
    47    24    43 1   
@<TRIPOS>SUBSTRUCTURE
     1 7LX         1 TEMP              0 ****  ****    0 ROOT
