@<TRIPOS>MOLECULE
7LX
   45    47     1     0     0
SMALL
No Charge or Current Charge


@<TRIPOS>ATOM
      1 C4          -1.8730     0.7410     0.9080 ca         1 7LX      -0.106000
      2 C6           0.2330    -1.5250     1.6830 c          1 7LX       0.711000
      3 C7          -3.7450    -0.4860    -0.8040 ca         1 7LX       0.097100
      4 C8          -3.1800     1.2500     0.8210 ca         1 7LX      -0.173000
      5 C15          3.0960     1.1070    -0.1980 ca         1 7LX      -0.264000
      6 C17         -4.3950    -2.2140    -2.4570 c3         1 7LX       0.149900
      7 C20         -7.3640     2.4810     0.2170 c3         1 7LX      -0.090100
      8 C21          4.4970     1.0040    -0.2390 ca         1 7LX       0.055000
      9 C22          5.1100    -0.2550    -0.3700 ca         1 7LX      -0.160000
     10 C24          6.7100     1.9780    -0.1990 ca         1 7LX       0.311900
     11 C26          5.3160     2.1390    -0.1520 ca         1 7LX      -0.171000
     12 C1          -1.4870    -0.3810     0.1500 ca         1 7LX      -0.032300
     13 C2          -0.0610    -0.9330     0.2410 c3         1 7LX       0.103800
     14 C3          -2.4260    -0.9890    -0.7060 ca         1 7LX      -0.150000
     15 N5           0.9200     0.0940    -0.2450 nu         1 7LX      -0.917200
     16 C9           2.3050    -0.0460    -0.2840 ca         1 7LX       0.403000
     17 C12         -4.1240     0.6400    -0.0350 ca         1 7LX       0.089100
     18 O13         -4.6870    -1.0680    -1.6380 os         1 7LX      -0.335100
     19 C14          2.9190    -1.3060    -0.4200 ca         1 7LX      -0.136000
     20 O16         -5.4210     1.1160    -0.1460 os         1 7LX      -0.339100
     21 C18          4.3200    -1.4150    -0.4620 ca         1 7LX      -0.061000
     22 C19         -5.8920     2.2530     0.5960 c3         1 7LX       0.165600
     23 N23          7.3110     0.7720    -0.3250 nb         1 7LX      -0.715000
     24 C25          6.5170    -0.3220    -0.4080 ca         1 7LX       0.374900
     25 H1          -1.1570     1.2210     1.5720 ha         1 7LX       0.129000
     26 H2          -3.4380     2.1160     1.4230 ha         1 7LX       0.104000
     27 H3           2.6270     2.0820    -0.0970 ha         1 7LX       0.103000
     28 H4          -4.0960    -3.0700    -1.8380 h1         1 7LX       0.033367
     29 H5          -5.2820    -2.5040    -3.0330 h1         1 7LX       0.033367
     30 H6          -3.5880    -1.9900    -3.1660 h1         1 7LX       0.033367
     31 H7          -7.4600     2.6770    -0.8580 hc         1 7LX       0.039367
     32 H8          -7.9680     1.6010     0.4690 hc         1 7LX       0.039367
     33 H9          -7.7660     3.3430     0.7610 hc         1 7LX       0.039367
     34 H10          7.3700     2.8420    -0.1330 h4         1 7LX      -0.004900
     35 H11          4.8880     3.1320    -0.0510 ha         1 7LX       0.107000
     36 H12         -0.0010    -1.7930    -0.4390 h1         1 7LX       0.053700
     37 H13         -2.1150    -1.8510    -1.2890 ha         1 7LX       0.121000
     38 H14          0.6080     1.0630    -0.1900 hn         1 7LX       0.472000
     39 H16          2.3130    -2.2030    -0.4990 ha         1 7LX       0.136000
     40 H17          4.7850    -2.3930    -0.5670 ha         1 7LX       0.102000
     41 H18         -5.3090     3.1490     0.3470 h1         1 7LX       0.027200
     42 H19         -5.8180     2.0710     1.6760 h1         1 7LX       0.027200
     43 H20          7.0270    -1.2800    -0.5090 h4         1 7LX      -0.000900
     44 O10          0.4750    -0.7590     2.6100 o          1 7LX      -0.701500
     45 O11          0.2240    -2.7430     1.8160 o          1 7LX      -0.701500
@<TRIPOS>BOND
     1     1     4 ar  
     2     1    12 ar  
     3     1    25 1   
     4     2    13 1   
     5     2    44 1   
     6     2    45 1   
     7     3    14 ar  
     8     3    17 ar  
     9     3    18 1   
    10     4    17 ar  
    11     4    26 1   
    12     5     8 ar  
    13     5    16 ar  
    14     5    27 1   
    15     6    18 1   
    16     6    28 1   
    17     6    29 1   
    18     6    30 1   
    19     7    22 1   
    20     7    31 1   
    21     7    32 1   
    22     7    33 1   
    23     8     9 ar  
    24     8    11 ar  
    25     9    21 ar  
    26     9    24 ar  
    27    10    11 ar  
    28    10    23 ar  
    29    10    34 1   
    30    11    35 1   
    31    12    13 1   
    32    12    14 ar  
    33    13    15 1   
    34    13    36 1   
    35    14    37 1   
    36    15    16 1   
    37    15    38 1   
    38    16    19 ar  
    39    17    20 1   
    40    19    21 ar  
    41    19    39 1   
    42    20    22 1   
    43    21    40 1   
    44    22    41 1   
    45    22    42 1   
    46    23    24 ar  
    47    24    43 1   
@<TRIPOS>SUBSTRUCTURE
     1 7LX         1 TEMP              0 ****  ****    0 ROOT
