@<TRIPOS>MOLECULE
7LY
   59    63     1     0     0
SMALL
No Charge or Current Charge


@<TRIPOS>ATOM
      1 C1           2.4340    -1.7090     0.1680 ca         1 7LY      -0.014000
      2 C2           2.9810    -2.9700    -0.1170 ca         1 7LY      -0.172000
      3 C3           4.3700    -3.1670    -0.1040 ca         1 7LY      -0.080000
      4 C4           5.2440    -2.1020     0.1870 ca         1 7LY      -0.102300
      5 C5           6.7510    -2.3580     0.1940 c3         1 7LY      -0.062100
      6 C6           7.5240    -1.5360    -0.8620 c3         1 7LY       0.162800
      7 C7           6.5640     0.7480    -0.3650 c3         1 7LY       0.162800
      8 C8           5.6120     0.3650     0.7890 c3         1 7LY      -0.072100
      9 N            1.0180    -1.5850     0.1310 ns         1 7LY      -0.148000
     10 C            0.1520    -0.5630     0.5060 c          1 7LY       0.634700
     11 O            0.5410     0.4740     1.0290 o          1 7LY      -0.556100
     12 N1           7.7470    -0.1380    -0.4300 n7         1 7LY      -0.860400
     13 C9           4.7070    -0.8250     0.4670 ca         1 7LY      -0.044300
     14 N2          -7.3850    -2.8740    -0.5640 na         1 7LY       0.001800
     15 C21         -0.4280     6.2630     0.2040 ca         1 7LY      -0.097000
     16 C10          3.3090    -0.6380     0.4540 ca         1 7LY      -0.130000
     17 C12         -1.7660    -2.2090     0.2240 ca         1 7LY      -0.047000
     18 C13         -3.1220    -2.5110     0.0340 ca         1 7LY      -0.161000
     19 C14         -4.0780    -1.4880    -0.1020 ca         1 7LY       0.081000
     20 C15         -3.6410    -0.1520    -0.0460 ca         1 7LY      -0.212000
     21 C16         -2.2770     0.1690     0.1450 ca         1 7LY       0.199100
     22 C17         -2.7520     2.5980     0.0170 c3         1 7LY       0.211900
     23 C18         -1.9370     3.8830     0.0820 ca         1 7LY      -0.095300
     24 C11         -1.3210    -0.8670     0.2860 ca         1 7LY      -0.206600
     25 C19         -1.6660     4.4900     1.3250 ca         1 7LY      -0.082000
     26 C20         -0.9140     5.6770     1.3850 ca         1 7LY      -0.114000
     27 C22         -0.6930     5.6600    -1.0380 ca         1 7LY      -0.114000
     28 C23         -1.4450     4.4740    -1.0990 ca         1 7LY      -0.082000
     29 C24         -5.5040    -1.7830    -0.3020 cc         1 7LY      -0.170000
     30 C25         -6.0080    -3.0510    -0.3700 cd         1 7LY      -0.148000
     31 C26         -6.5960    -0.9110    -0.4560 cc         1 7LY       0.257900
     32 N3          -7.7510    -1.5270    -0.6170 nd         1 7LY      -0.518800
     33 H1           2.3270    -3.8080    -0.3460 ha         1 7LY       0.108000
     34 H2           4.7660    -4.1560    -0.3240 ha         1 7LY       0.108000
     35 H3           7.1680    -2.1670     1.1900 hc         1 7LY       0.044700
     36 H4           6.9480    -3.4180    -0.0070 hc         1 7LY       0.044700
     37 H5           8.4980    -2.0220    -1.0180 h1         1 7LY       0.052200
     38 H6           6.9890    -1.5760    -1.8220 h1         1 7LY       0.052200
     39 H7           6.0100     0.7460    -1.3150 h1         1 7LY       0.054700
     40 H8           6.9000     1.7810    -0.1940 h1         1 7LY       0.054700
     41 H9           6.1910     0.1710     1.7000 hc         1 7LY       0.050700
     42 H10          5.0000     1.2470     1.0160 hc         1 7LY       0.050700
     43 H11          0.5530    -2.3930    -0.2600 hn         1 7LY       0.152000
     44 H12          8.1990    -0.1490     0.4920 hn         1 7LY       0.403000
     45 H14         -8.0780    -3.6170    -0.6600 hn         1 7LY       0.374000
     46 H16          2.9180     0.3530     0.6600 ha         1 7LY       0.145000
     47 H17         -1.0740    -3.0390     0.3450 ha         1 7LY       0.119000
     48 H18         -3.4170    -3.5550    -0.0000 ha         1 7LY       0.114000
     49 H19         -4.3770     0.6350    -0.1590 ha         1 7LY       0.121000
     50 H20         -3.2820     2.5500    -0.9430 h1         1 7LY       0.041700
     51 H21         -3.4980     2.5980     0.8230 h1         1 7LY       0.041700
     52 H22         -2.0360     4.0410     2.2440 ha         1 7LY       0.114000
     53 H23         -0.7080     6.1410     2.3470 ha         1 7LY       0.114000
     54 H24         -0.3160     6.1120    -1.9520 ha         1 7LY       0.114000
     55 H25         -1.6440     4.0130    -2.0640 ha         1 7LY       0.114000
     56 H26         -5.5430    -4.0290    -0.3040 h4         1 7LY       0.157000
     57 H27         -6.5840     0.1710    -0.4570 h4         1 7LY       0.039100
     58 O1          -1.8540     1.4840     0.1580 os         1 7LY      -0.324100
     59 H15          0.1550     7.1800     0.2510 ha         1 7LY       0.113000
@<TRIPOS>BOND
     1     1     2 ar  
     2     1     9 1   
     3     1    16 ar  
     4     2     3 ar  
     5     2    33 1   
     6     3     4 ar  
     7     3    34 1   
     8     4     5 1   
     9     4    13 ar  
    10     5     6 1   
    11     5    35 1   
    12     5    36 1   
    13     6    12 1   
    14     6    37 1   
    15     6    38 1   
    16     7     8 1   
    17     7    12 1   
    18     7    39 1   
    19     7    40 1   
    20     8    13 1   
    21     8    41 1   
    22     8    42 1   
    23     9    10 1   
    24     9    43 1   
    25    10    11 2   
    26    10    24 1   
    27    12    44 1   
    28    13    16 ar  
    29    14    30 1   
    30    14    32 1   
    31    14    45 1   
    32    15    26 ar  
    33    15    27 ar  
    34    15    59 1   
    35    16    46 1   
    36    17    18 ar  
    37    17    24 ar  
    38    17    47 1   
    39    18    19 ar  
    40    18    48 1   
    41    19    20 ar  
    42    19    29 1   
    43    20    21 ar  
    44    20    49 1   
    45    21    24 ar  
    46    21    58 1   
    47    22    23 1   
    48    22    50 1   
    49    22    51 1   
    50    22    58 1   
    51    23    25 ar  
    52    23    28 ar  
    53    25    26 ar  
    54    25    52 1   
    55    26    53 1   
    56    27    28 ar  
    57    27    54 1   
    58    28    55 1   
    59    29    30 2   
    60    29    31 1   
    61    30    56 1   
    62    31    32 2   
    63    31    57 1   
@<TRIPOS>SUBSTRUCTURE
     1 7LY         1 TEMP              0 ****  ****    0 ROOT
