@<TRIPOS>MOLECULE
7LY
   59    63     1     0     0
SMALL
bcc


@<TRIPOS>ATOM
      1 C1           2.3100    -1.5050    -0.2000 ca         1 7LY       0.078600
      2 C2           2.8570    -2.1720    -1.2940 ca         1 7LY      -0.190000
      3 C3           4.2300    -2.2940    -1.4160 ca         1 7LY      -0.098000
      4 C4           5.1020    -1.7650    -0.4700 ca         1 7LY      -0.102300
      5 C5           6.5880    -1.9060    -0.6520 c3         1 7LY      -0.062100
      6 C6           7.3440    -0.5770    -0.7780 c3         1 7LY       0.162800
      7 C7           6.3860     0.6060     1.1540 c3         1 7LY       0.162800
      8 C8           5.4400    -0.4850     1.6790 c3         1 7LY      -0.072100
      9 N            0.9130    -1.4380    -0.1330 ns         1 7LY      -0.474100
     10 C            0.1240    -0.7140     0.7010 c          1 7LY       0.701700
     11 O            0.5370     0.0580     1.5460 o          1 7LY      -0.556100
     12 N1           7.5690     0.1680     0.4450 n7         1 7LY      -0.805200
     13 C9           4.5540    -1.0950     0.6280 ca         1 7LY      -0.044300
     14 N2          -7.4590    -2.7180    -0.0680 na         1 7LY       0.001400
     15 C21         -0.0440     5.8350    -0.6400 ca         1 7LY      -0.115000
     16 C10          3.1730    -0.9690     0.7570 ca         1 7LY      -0.148000
     17 C12         -1.8220    -2.2790     0.5860 ca         1 7LY      -0.065000
     18 C13         -3.1760    -2.5490     0.4840 ca         1 7LY      -0.179000
     19 C14         -4.0800    -1.5080     0.2790 ca         1 7LY       0.081000
     20 C15         -3.5940    -0.2010     0.1820 ca         1 7LY      -0.230000
     21 C16         -2.2360     0.0710     0.3000 ca         1 7LY       0.199100
     22 C17         -2.5510     2.3890    -0.1520 c3         1 7LY       0.188700
     23 C18         -1.6800     3.5970    -0.3190 ca         1 7LY      -0.095300
     24 C11         -1.3330    -0.9810     0.5070 ca         1 7LY      -0.206600
     25 C19         -1.7600     4.6620     0.5700 ca         1 7LY      -0.100000
     26 C20         -0.9490     5.7790     0.4100 ca         1 7LY      -0.132000
     27 C22          0.0440     4.7720    -1.5320 ca         1 7LY      -0.132000
     28 C23         -0.7700     3.6610    -1.3730 ca         1 7LY      -0.100000
     29 C24         -5.5120    -1.7630     0.1600 cc         1 7LY      -0.235300
     30 C25         -6.1490    -2.9790    -0.0090 cd         1 7LY      -0.115300
     31 C26         -6.5760    -0.8340     0.1880 cc         1 7LY       0.323200
     32 N3          -7.7450    -1.4270     0.0500 nd         1 7LY      -0.518800
     33 H1           2.2100    -2.5960    -2.0530 ha         1 7LY       0.126000
     34 H2           4.6330    -2.8140    -2.2770 ha         1 7LY       0.126000
     35 H3           7.0250    -2.4790     0.1740 hc         1 7LY       0.044700
     36 H4           6.7730    -2.4940    -1.5550 hc         1 7LY       0.044700
     37 H5           8.3240    -0.7840    -1.2160 h1         1 7LY       0.052200
     38 H6           6.8180     0.0700    -1.4880 h1         1 7LY       0.052200
     39 H7           5.8240     1.2870     0.5070 h1         1 7LY       0.054700
     40 H8           6.7220     1.1990     2.0090 h1         1 7LY       0.054700
     41 H9           6.0390    -1.2620     2.1670 hc         1 7LY       0.050700
     42 H10          4.8150    -0.0500     2.4630 hc         1 7LY       0.050700
     43 H11          0.4310    -1.9580    -0.8510 hn         1 7LY       0.318500
     44 H12          8.1400    -0.3900     1.0700 hn         1 7LY       0.347800
     45 H14         -8.2020    -3.3860    -0.1970 hn         1 7LY       0.323700
     46 H16          2.7800    -0.4520     1.6180 ha         1 7LY       0.163000
     47 H17         -1.1330    -3.0980     0.7530 ha         1 7LY       0.137000
     48 H18         -3.5220    -3.5690     0.5780 ha         1 7LY       0.132000
     49 H19         -4.2950     0.6040     0.0050 ha         1 7LY       0.139000
     50 H20         -3.0840     2.1680    -1.0830 h1         1 7LY       0.041700
     51 H21         -3.2980     2.5610     0.6300 h1         1 7LY       0.041700
     52 H22         -2.4610     4.6230     1.3950 ha         1 7LY       0.132000
     53 H23         -1.0240     6.6040     1.1070 ha         1 7LY       0.132000
     54 H24          0.7460     4.8110    -2.3550 ha         1 7LY       0.132000
     55 H25         -0.6990     2.8400    -2.0760 ha         1 7LY       0.132000
     56 H26         -5.7700    -3.9840    -0.0990 h4         1 7LY       0.175000
     57 H27         -6.5280     0.2380     0.3120 h4         1 7LY       0.039100
     58 O1          -1.7060     1.2990     0.1940 os         1 7LY      -0.300900
     59 H15          0.5890     6.7040    -0.7680 ha         1 7LY       0.131000
@<TRIPOS>BOND
     1     1     2 ar  
     2     1     9 1   
     3     1    16 ar  
     4     2     3 ar  
     5     2    33 1   
     6     3     4 ar  
     7     3    34 1   
     8     4     5 1   
     9     4    13 ar  
    10     5     6 1   
    11     5    35 1   
    12     5    36 1   
    13     6    12 1   
    14     6    37 1   
    15     6    38 1   
    16     7     8 1   
    17     7    12 1   
    18     7    39 1   
    19     7    40 1   
    20     8    13 1   
    21     8    41 1   
    22     8    42 1   
    23     9    10 1   
    24     9    43 1   
    25    10    11 2   
    26    10    24 1   
    27    12    44 1   
    28    13    16 ar  
    29    14    30 1   
    30    14    32 1   
    31    14    45 1   
    32    15    26 ar  
    33    15    27 ar  
    34    15    59 1   
    35    16    46 1   
    36    17    18 ar  
    37    17    24 ar  
    38    17    47 1   
    39    18    19 ar  
    40    18    48 1   
    41    19    20 ar  
    42    19    29 1   
    43    20    21 ar  
    44    20    49 1   
    45    21    24 ar  
    46    21    58 1   
    47    22    23 1   
    48    22    50 1   
    49    22    51 1   
    50    22    58 1   
    51    23    25 ar  
    52    23    28 ar  
    53    25    26 ar  
    54    25    52 1   
    55    26    53 1   
    56    27    28 ar  
    57    27    54 1   
    58    28    55 1   
    59    29    30 2   
    60    29    31 1   
    61    30    56 1   
    62    31    32 2   
    63    31    57 1   
@<TRIPOS>SUBSTRUCTURE
     1 7LY         1 TEMP              0 ****  ****    0 ROOT
