@<TRIPOS>MOLECULE
7LZ
   90    90     1     0     0
SMALL
No Charge or Current Charge


@<TRIPOS>ATOM
      1 C1           3.3260     0.0820    -1.8350 c          1 7LZ       0.605300
      2 C2           3.0770     1.5030    -2.2230 ce         1 7LZ      -0.254200
      3 C3           2.2990     2.4410    -1.6010 cf         1 7LZ      -0.117000
      4 C4           1.4030     2.2070    -0.4790 cf         1 7LZ      -0.197000
      5 C5           0.5640     3.1310     0.0430 c2         1 7LZ      -0.168200
      6 C6          -0.4750     2.8280     1.1130 c3         1 7LZ      -0.033500
      7 C7          -1.8910     2.5800     0.4980 c3         1 7LZ       0.187300
      8 O7          -1.7380     1.9480    -0.7760 oh         1 7LZ      -0.660000
      9 C8          -2.7890     1.6870     1.3900 c3         1 7LZ      -0.143400
     10 C9          -4.2160     1.4410     0.8460 c3         1 7LZ       0.199500
     11 O1           3.5950    -0.7760    -2.6640 o          1 7LZ      -0.489000
     12 O9          -5.0330     2.5780     1.1080 oh         1 7LZ      -0.663000
     13 C10         -4.8550     0.2490     1.5240 c2         1 7LZ      -0.273200
     14 C11         -5.6150    -0.7180     0.9720 c2         1 7LZ      -0.147200
     15 C12         -6.0800    -0.8560    -0.4780 c3         1 7LZ      -0.028500
     16 C13         -5.5320    -2.1350    -1.2120 c3         1 7LZ       0.180300
     17 O13         -5.6300    -3.2850    -0.3580 oh         1 7LZ      -0.658000
     18 C14         -4.0860    -2.0380    -1.8100 c3         1 7LZ      -0.091700
     19 C15         -2.9910    -1.6930    -0.7500 c3         1 7LZ      -0.074400
     20 C16         -1.5370    -2.2350    -0.9470 c3         1 7LZ      -0.052700
     21 C17         -0.6520    -1.6500     0.1930 c3         1 7LZ      -0.075400
     22 C18          0.8290    -2.1130     0.2580 c3         1 7LZ      -0.114400
     23 C19          1.5920    -1.4410     1.4320 c3         1 7LZ       0.175300
     24 O19          1.0590    -1.9670     2.6550 oh         1 7LZ      -0.669000
     25 C20          3.1490    -1.6010     1.4510 c3         1 7LZ      -0.052700
     26 C21          3.8490    -1.3730     0.0570 c3         1 7LZ       0.181300
     27 O21          3.3880    -0.1020    -0.4700 os         1 7LZ      -0.445100
     28 C22          5.4290    -1.4080     0.0990 c3         1 7LZ      -0.047500
     29 C23          6.1120    -1.1110    -1.2330 c2         1 7LZ      -0.202200
     30 C24          6.5750     0.0770    -1.6900 ce         1 7LZ      -0.184000
     31 C25          6.4710     1.3640    -0.9910 ce         1 7LZ      -0.182000
     32 C26          6.9900     2.5080    -1.4820 c2         1 7LZ      -0.313000
     33 C61         -0.4850     3.9240     2.2020 c3         1 7LZ      -0.088100
     34 C27         -7.6260    -0.8220    -0.5080 c3         1 7LZ      -0.089100
     35 C28         -4.0800    -1.0540    -3.0180 c3         1 7LZ      -0.087100
     36 C29         -0.9420    -1.9670    -2.3520 c3         1 7LZ      -0.097100
     37 C30          3.7470    -0.7050     2.5800 c3         1 7LZ      -0.084100
     38 C31          5.9670    -2.7590     0.6340 c3         1 7LZ      -0.087100
     39 H2           3.5610     1.7840    -3.1550 ha         1 7LZ       0.204000
     40 H3           2.2560     3.4350    -2.0530 ha         1 7LZ       0.175000
     41 H4           1.3520     1.1920    -0.0930 ha         1 7LZ       0.180000
     42 H5           0.5630     4.1540    -0.3410 ha         1 7LZ       0.168000
     43 H6          -0.1720     1.8990     1.6140 hc         1 7LZ       0.057700
     44 H7          -2.3820     3.5530     0.3600 h1         1 7LZ       0.031700
     45 H71         -0.8090     2.1240    -1.0420 ho         1 7LZ       0.453000
     46 H81         -2.2940     0.7160     1.5080 hc         1 7LZ       0.054700
     47 H82         -2.8580     2.1170     2.3960 hc         1 7LZ       0.054700
     48 H9          -4.1550     1.2570    -0.2350 h1         1 7LZ       0.077700
     49 H91         -5.9580     2.2770     0.9860 ho         1 7LZ       0.439000
     50 H10         -4.6320     0.1930     2.5900 ha         1 7LZ       0.166000
     51 H11         -5.9840    -1.5210     1.6140 ha         1 7LZ       0.176000
     52 H12         -5.7600     0.0190    -1.0500 hc         1 7LZ       0.058700
     53 H13         -6.1930    -2.3050    -2.0730 h1         1 7LZ       0.027700
     54 H57         -5.2800    -4.0470    -0.8680 ho         1 7LZ       0.441000
     55 H14         -3.8490    -3.0310    -2.2130 hc         1 7LZ       0.038700
     56 H56         -2.9430    -0.6040    -0.6580 hc         1 7LZ       0.047700
     57 H54         -3.3280    -2.0570     0.2270 hc         1 7LZ       0.047700
     58 H16         -1.5720    -3.3240    -0.8150 hc         1 7LZ       0.041700
     59 H53         -0.6580    -0.5570     0.1070 hc         1 7LZ       0.033700
     60 H52         -1.1360    -1.8840     1.1480 hc         1 7LZ       0.033700
     61 H49          0.8850    -3.2050     0.3450 hc         1 7LZ       0.055200
     62 H48          1.3130    -1.8390    -0.6820 hc         1 7LZ       0.055200
     63 H19          1.3820    -0.3660     1.3880 h1         1 7LZ       0.033700
     64 H47          0.0850    -1.8650     2.6060 ho         1 7LZ       0.442000
     65 H20          3.3420    -2.6440     1.7290 hc         1 7LZ       0.067700
     66 H21          3.5220    -2.1920    -0.5970 h1         1 7LZ       0.069700
     67 H22          5.7650    -0.6480     0.8100 hc         1 7LZ       0.065700
     68 H23          6.2300    -1.9930    -1.8660 ha         1 7LZ       0.178000
     69 H24          7.0540     0.1080    -2.6720 ha         1 7LZ       0.172000
     70 H25          5.9300     1.3840    -0.0430 ha         1 7LZ       0.174000
     71 H27          7.5290     2.5380    -2.4300 ha         1 7LZ       0.161000
     72 H28          6.8900     3.4540    -0.9480 ha         1 7LZ       0.161000
     73 H29         -0.8030     4.8870     1.7840 hc         1 7LZ       0.038033
     74 H30         -1.1660     3.6630     3.0200 hc         1 7LZ       0.038033
     75 H31          0.5180     4.0500     2.6270 hc         1 7LZ       0.038033
     76 H32         -8.0490    -1.6820     0.0260 hc         1 7LZ       0.038033
     77 H33         -8.0000     0.0930    -0.0340 hc         1 7LZ       0.038033
     78 H34         -7.9960    -0.8430    -1.5400 hc         1 7LZ       0.038033
     79 H35         -4.1660    -0.0130    -2.6860 hc         1 7LZ       0.035700
     80 H36         -3.1710    -1.1320    -3.6180 hc         1 7LZ       0.035700
     81 H37         -4.9200    -1.2640    -3.6920 hc         1 7LZ       0.035700
     82 H38         -0.9340    -0.8940    -2.5780 hc         1 7LZ       0.040367
     83 H39          0.0820    -2.3450    -2.4350 hc         1 7LZ       0.040367
     84 H40         -1.5170    -2.4930    -3.1210 hc         1 7LZ       0.040367
     85 H41          3.6980     0.3550     2.3020 hc         1 7LZ       0.040700
     86 H42          3.2050    -0.8290     3.5240 hc         1 7LZ       0.040700
     87 H43          4.7910    -0.9590     2.7910 hc         1 7LZ       0.040700
     88 H44          7.0640    -2.7670     0.6200 hc         1 7LZ       0.038700
     89 H45          5.6540    -2.9390     1.6690 hc         1 7LZ       0.038700
     90 H46          5.6120    -3.5930     0.0170 hc         1 7LZ       0.038700
@<TRIPOS>BOND
     1     1     2 1   
     2     1    11 2   
     3     1    27 1   
     4     2     3 2   
     5     2    39 1   
     6     3     4 1   
     7     3    40 1   
     8     4     5 2   
     9     4    41 1   
    10     5     6 1   
    11     5    42 1   
    12     6     7 1   
    13     6    33 1   
    14     6    43 1   
    15     7     8 1   
    16     7     9 1   
    17     7    44 1   
    18     8    45 1   
    19     9    10 1   
    20     9    46 1   
    21     9    47 1   
    22    10    12 1   
    23    10    13 1   
    24    10    48 1   
    25    12    49 1   
    26    13    14 2   
    27    13    50 1   
    28    14    15 1   
    29    14    51 1   
    30    15    16 1   
    31    15    34 1   
    32    15    52 1   
    33    16    17 1   
    34    16    18 1   
    35    16    53 1   
    36    17    54 1   
    37    18    19 1   
    38    18    35 1   
    39    18    55 1   
    40    19    20 1   
    41    19    56 1   
    42    19    57 1   
    43    20    21 1   
    44    20    36 1   
    45    20    58 1   
    46    21    22 1   
    47    21    59 1   
    48    21    60 1   
    49    22    23 1   
    50    22    61 1   
    51    22    62 1   
    52    23    24 1   
    53    23    25 1   
    54    23    63 1   
    55    24    64 1   
    56    25    26 1   
    57    25    37 1   
    58    25    65 1   
    59    26    27 1   
    60    26    28 1   
    61    26    66 1   
    62    28    29 1   
    63    28    38 1   
    64    28    67 1   
    65    29    30 2   
    66    29    68 1   
    67    30    31 1   
    68    30    69 1   
    69    31    32 2   
    70    31    70 1   
    71    32    71 1   
    72    32    72 1   
    73    33    73 1   
    74    33    74 1   
    75    33    75 1   
    76    34    76 1   
    77    34    77 1   
    78    34    78 1   
    79    35    79 1   
    80    35    80 1   
    81    35    81 1   
    82    36    82 1   
    83    36    83 1   
    84    36    84 1   
    85    37    85 1   
    86    37    86 1   
    87    37    87 1   
    88    38    88 1   
    89    38    89 1   
    90    38    90 1   
@<TRIPOS>SUBSTRUCTURE
     1 7LZ         1 TEMP              0 ****  ****    0 ROOT
