@<TRIPOS>MOLECULE
7LZ
   90    90     1     0     0
SMALL
bcc


@<TRIPOS>ATOM
      1 C1           3.3670     0.6080    -1.4830 c          1 7LZ       0.654300
      2 C2           3.3060     2.0920    -1.4550 ce         1 7LZ      -0.204200
      3 C3           2.3810     2.8120    -0.8130 cf         1 7LZ      -0.067000
      4 C4           1.2860     2.2870    -0.0210 cf         1 7LZ      -0.147000
      5 C5           0.2960     3.0450     0.4590 c2         1 7LZ      -0.118200
      6 C6          -0.8650     2.5110     1.2330 c3         1 7LZ      -0.033500
      7 C7          -2.1750     2.7140     0.4560 c3         1 7LZ       0.164100
      8 O7          -1.9460     2.3140    -0.8780 oh         1 7LZ      -0.597800
      9 C8          -3.3210     1.9240     1.0970 c3         1 7LZ      -0.143400
     10 C9          -4.5710     1.8180     0.2250 c3         1 7LZ       0.176300
     11 O1           3.1600    -0.0350    -2.4820 o          1 7LZ      -0.538000
     12 O9          -5.0340     3.0960    -0.1880 oh         1 7LZ      -0.600800
     13 C10         -5.6440     1.0500     0.9390 c2         1 7LZ      -0.223200
     14 C11         -6.1870    -0.1100     0.5760 c2         1 7LZ      -0.097200
     15 C12         -5.9260    -0.8980    -0.6760 c3         1 7LZ      -0.028500
     16 C13         -5.2870    -2.2900    -0.4100 c3         1 7LZ       0.157100
     17 O13         -5.2280    -2.5080     0.9840 oh         1 7LZ      -0.595800
     18 C14         -3.9120    -2.4800    -1.0740 c3         1 7LZ      -0.091700
     19 C15         -2.8500    -1.5260    -0.5250 c3         1 7LZ      -0.074400
     20 C16         -1.3950    -1.8590    -0.9110 c3         1 7LZ      -0.052700
     21 C17         -0.4930    -1.6330     0.3070 c3         1 7LZ      -0.075400
     22 C18          0.9940    -1.8930     0.0930 c3         1 7LZ      -0.114400
     23 C19          1.8290    -1.4980     1.3100 c3         1 7LZ       0.152100
     24 O19          1.4140    -2.2130     2.4630 oh         1 7LZ      -0.606800
     25 C20          3.3390    -1.7610     1.1830 c3         1 7LZ      -0.052700
     26 C21          3.9190    -1.3210    -0.1640 c3         1 7LZ       0.158100
     27 O21          3.6870     0.0940    -0.3020 os         1 7LZ      -0.421900
     28 C22          5.4330    -1.5750    -0.3060 c3         1 7LZ      -0.047500
     29 C23          5.9200    -1.1110    -1.6470 c2         1 7LZ      -0.152200
     30 C24          6.5950     0.0120    -1.9130 ce         1 7LZ      -0.134000
     31 C25          6.9800     1.0390    -0.9580 ce         1 7LZ      -0.132000
     32 C26          7.6240     2.1550    -1.3040 c2         1 7LZ      -0.213000
     33 C61         -0.9340     3.1730     2.6100 c3         1 7LZ      -0.088100
     34 C27         -7.2390    -1.0510    -1.4480 c3         1 7LZ      -0.089100
     35 C28         -4.0430    -2.4470    -2.5930 c3         1 7LZ      -0.087100
     36 C29         -0.9360    -1.0310    -2.1110 c3         1 7LZ      -0.097100
     37 C30          4.0740    -1.1430     2.3720 c3         1 7LZ      -0.084100
     38 C31          5.7620    -3.0580    -0.1290 c3         1 7LZ      -0.087100
     39 H2           4.0320     2.5900    -2.0880 ha         1 7LZ       0.154000
     40 H3           2.4110     3.8900    -0.9360 ha         1 7LZ       0.125000
     41 H4           1.2470     1.2160     0.1510 ha         1 7LZ       0.130000
     42 H5           0.3150     4.1200     0.2860 ha         1 7LZ       0.118000
     43 H6          -0.7180     1.4330     1.3710 hc         1 7LZ       0.057700
     44 H7          -2.4190     3.7860     0.4910 h1         1 7LZ       0.031700
     45 H71         -2.6550     2.6670    -1.4240 ho         1 7LZ       0.414000
     46 H81         -2.9840     0.9090     1.3320 hc         1 7LZ       0.054700
     47 H82         -3.5910     2.3870     2.0520 hc         1 7LZ       0.054700
     48 H9          -4.3090     1.2980    -0.6980 h1         1 7LZ       0.077700
     49 H91         -5.2100     3.6230     0.6000 ho         1 7LZ       0.400000
     50 H10         -5.9870     1.5030     1.8680 ha         1 7LZ       0.116000
     51 H11         -6.9510    -0.5240     1.2280 ha         1 7LZ       0.126000
     52 H12         -5.2530    -0.3260    -1.3180 hc         1 7LZ       0.058700
     53 H13         -5.9470    -3.0450    -0.8640 h1         1 7LZ       0.027700
     54 H57         -4.8750    -3.3920     1.1270 ho         1 7LZ       0.402000
     55 H14         -3.5930    -3.4990    -0.8090 hc         1 7LZ       0.038700
     56 H56         -3.0570    -0.4970    -0.8370 hc         1 7LZ       0.047700
     57 H54         -2.9400    -1.5230     0.5640 hc         1 7LZ       0.047700
     58 H16         -1.3350    -2.9220    -1.1780 hc         1 7LZ       0.041700
     59 H53         -0.6310    -0.5950     0.6370 hc         1 7LZ       0.033700
     60 H52         -0.8670    -2.2620     1.1200 hc         1 7LZ       0.033700
     61 H49          1.1630    -2.9480    -0.1520 hc         1 7LZ       0.055200
     62 H48          1.3280    -1.3190    -0.7730 hc         1 7LZ       0.055200
     63 H19          1.6880    -0.4190     1.4820 h1         1 7LZ       0.033700
     64 H47          0.5500    -1.8870     2.7310 ho         1 7LZ       0.403000
     65 H20          3.4620    -2.8490     1.2120 hc         1 7LZ       0.067700
     66 H21          3.4100    -1.8560    -0.9700 h1         1 7LZ       0.069700
     67 H22          5.9480    -1.0140     0.4760 hc         1 7LZ       0.065700
     68 H23          5.6860    -1.7690    -2.4790 ha         1 7LZ       0.128000
     69 H24          6.8780     0.2000    -2.9450 ha         1 7LZ       0.122000
     70 H25          6.7230     0.8870     0.0850 ha         1 7LZ       0.124000
     71 H27          7.9000     2.3580    -2.3320 ha         1 7LZ       0.111000
     72 H28          7.8940     2.9030    -0.5700 ha         1 7LZ       0.111000
     73 H29         -1.1140     4.2460     2.5160 hc         1 7LZ       0.038033
     74 H30         -1.7350     2.7540     3.2200 hc         1 7LZ       0.038033
     75 H31         -0.0010     3.0350     3.1550 hc         1 7LZ       0.038033
     76 H32         -7.9760    -1.6100    -0.8660 hc         1 7LZ       0.038033
     77 H33         -7.6690    -0.0790    -1.6920 hc         1 7LZ       0.038033
     78 H34         -7.0790    -1.5890    -2.3830 hc         1 7LZ       0.038033
     79 H35         -4.2630    -1.4450    -2.9670 hc         1 7LZ       0.035700
     80 H36         -3.1260    -2.7800    -3.0800 hc         1 7LZ       0.035700
     81 H37         -4.8420    -3.1110    -2.9310 hc         1 7LZ       0.035700
     82 H38         -0.8600     0.0240    -1.8360 hc         1 7LZ       0.040367
     83 H39          0.0340    -1.3500    -2.4940 hc         1 7LZ       0.040367
     84 H40         -1.6440    -1.0990    -2.9380 hc         1 7LZ       0.040367
     85 H41          3.9890    -0.0540     2.3650 hc         1 7LZ       0.040700
     86 H42          3.6570    -1.5000     3.3110 hc         1 7LZ       0.040700
     87 H43          5.1350    -1.3920     2.3800 hc         1 7LZ       0.040700
     88 H44          6.8170    -3.2350    -0.3370 hc         1 7LZ       0.038700
     89 H45          5.5680    -3.4080     0.8850 hc         1 7LZ       0.038700
     90 H46          5.1820    -3.6780    -0.8150 hc         1 7LZ       0.038700
@<TRIPOS>BOND
     1     1     2 1   
     2     1    11 2   
     3     1    27 1   
     4     2     3 2   
     5     2    39 1   
     6     3     4 1   
     7     3    40 1   
     8     4     5 2   
     9     4    41 1   
    10     5     6 1   
    11     5    42 1   
    12     6     7 1   
    13     6    33 1   
    14     6    43 1   
    15     7     8 1   
    16     7     9 1   
    17     7    44 1   
    18     8    45 1   
    19     9    10 1   
    20     9    46 1   
    21     9    47 1   
    22    10    12 1   
    23    10    13 1   
    24    10    48 1   
    25    12    49 1   
    26    13    14 2   
    27    13    50 1   
    28    14    15 1   
    29    14    51 1   
    30    15    16 1   
    31    15    34 1   
    32    15    52 1   
    33    16    17 1   
    34    16    18 1   
    35    16    53 1   
    36    17    54 1   
    37    18    19 1   
    38    18    35 1   
    39    18    55 1   
    40    19    20 1   
    41    19    56 1   
    42    19    57 1   
    43    20    21 1   
    44    20    36 1   
    45    20    58 1   
    46    21    22 1   
    47    21    59 1   
    48    21    60 1   
    49    22    23 1   
    50    22    61 1   
    51    22    62 1   
    52    23    24 1   
    53    23    25 1   
    54    23    63 1   
    55    24    64 1   
    56    25    26 1   
    57    25    37 1   
    58    25    65 1   
    59    26    27 1   
    60    26    28 1   
    61    26    66 1   
    62    28    29 1   
    63    28    38 1   
    64    28    67 1   
    65    29    30 2   
    66    29    68 1   
    67    30    31 1   
    68    30    69 1   
    69    31    32 2   
    70    31    70 1   
    71    32    71 1   
    72    32    72 1   
    73    33    73 1   
    74    33    74 1   
    75    33    75 1   
    76    34    76 1   
    77    34    77 1   
    78    34    78 1   
    79    35    79 1   
    80    35    80 1   
    81    35    81 1   
    82    36    82 1   
    83    36    83 1   
    84    36    84 1   
    85    37    85 1   
    86    37    86 1   
    87    37    87 1   
    88    38    88 1   
    89    38    89 1   
    90    38    90 1   
@<TRIPOS>SUBSTRUCTURE
     1 7LZ         1 TEMP              0 ****  ****    0 ROOT
