@<TRIPOS>MOLECULE
7M0
   14    15     1     0     0
SMALL
bcc


@<TRIPOS>ATOM
      1 C1           0.0040     0.7140     0.0100 ca         1 7M0       0.023100
      2 C2           0.0160    -0.7060    -0.0110 ca         1 7M0      -0.037900
      3 C3           1.1980    -1.4100    -0.0340 ca         1 7M0      -0.014000
      4 C4           1.1690     1.4480     0.0070 ca         1 7M0      -0.102000
      5 N5           3.6650     1.0520    -0.0260 na         1 7M0      -0.013100
      6 C6           2.3570     0.7200    -0.0170 ca         1 7M0      -0.075200
      7 C7           2.3820    -0.6730    -0.0360 ca         1 7M0       0.015400
      8 N8           3.6870    -1.0760    -0.0570 nc         1 7M0      -0.212400
      9 N9           4.4230    -0.0330    -0.0510 nd         1 7M0      -0.148400
     10 BR1         -1.6210     1.6530     0.0440 br         1 7M0      -0.052100
     11 BR2         -1.5940    -1.6750    -0.0080 br         1 7M0      -0.055100
     12 H1           1.2170    -2.4910    -0.0490 ha         1 7M0       0.172000
     13 H2           1.1650     2.5290     0.0230 ha         1 7M0       0.160000
     14 H3           4.0940     1.9660    -0.0210 hn         1 7M0       0.337700
@<TRIPOS>BOND
     1     1     2 ar  
     2     1     4 ar  
     3     1    10 1   
     4     2     3 ar  
     5     2    11 1   
     6     3     7 ar  
     7     3    12 1   
     8     4     6 ar  
     9     4    13 1   
    10     5     6 1   
    11     5     9 1   
    12     5    14 1   
    13     6     7 ar  
    14     7     8 1   
    15     8     9 2   
@<TRIPOS>SUBSTRUCTURE
     1 7M0         1 TEMP              0 ****  ****    0 ROOT
