@<TRIPOS>MOLECULE
7M0
   14    15     1     0     0
SMALL
No Charge or Current Charge


@<TRIPOS>ATOM
      1 C1          -0.0290     0.7190     0.0100 ca         1 7M0       0.023100
      2 C2          -0.0180    -0.7030    -0.0100 ca         1 7M0      -0.037900
      3 C3           1.2080    -1.4070    -0.0340 ca         1 7M0       0.004000
      4 C4           1.1870     1.4350     0.0070 ca         1 7M0      -0.084000
      5 N5           3.6760     1.0730    -0.0270 na         1 7M0      -0.063400
      6 C6           2.3710     0.6890    -0.0170 ca         1 7M0      -0.075200
      7 C7           2.4000    -0.6680    -0.0370 ca         1 7M0       0.015400
      8 N8           3.7140    -1.1210    -0.0590 nc         1 7M0      -0.212400
      9 N9           4.4990    -0.0400    -0.0520 nd         1 7M0      -0.148400
     10 Br1         -1.6770     1.6990     0.0430 br         1 7M0      -0.052100
     11 Br2         -1.6540    -1.7040    -0.0060 br         1 7M0      -0.055100
     12 H1           1.2290    -2.4940    -0.0500 ha         1 7M0       0.154000
     13 H2           1.2010     2.5230     0.0220 ha         1 7M0       0.142000
     14 H3           4.0540     2.0170    -0.0180 hn         1 7M0       0.388000
@<TRIPOS>BOND
     1     1     2 ar  
     2     1     4 ar  
     3     1    10 1   
     4     2     3 ar  
     5     2    11 1   
     6     3     7 ar  
     7     3    12 1   
     8     4     6 ar  
     9     4    13 1   
    10     5     6 1   
    11     5     9 1   
    12     5    14 1   
    13     6     7 ar  
    14     7     8 1   
    15     8     9 2   
@<TRIPOS>SUBSTRUCTURE
     1 7M0         1 TEMP              0 ****  ****    0 ROOT
