@<TRIPOS>MOLECULE
7M1
   48    51     1     0     0
SMALL
abcg2


@<TRIPOS>ATOM
      1 O01          5.0670     3.7090    -1.0920 oh         1 7M1      -0.531100
      2 C02          3.9980     2.9670    -0.7460 ca         1 7M1       0.147100
      3 C03          2.8000     2.9940    -1.4530 ca         1 7M1      -0.177500
      4 C04          1.7350     2.2080    -1.0390 ca         1 7M1      -0.054000
      5 C05          4.1140     2.1460     0.3760 ca         1 7M1      -0.177500
      6 C06          3.0470     1.3630     0.7710 ca         1 7M1      -0.054000
      7 C07          1.8390     1.3770     0.0720 cp         1 7M1      -0.088000
      8 C08          0.6870     0.5660     0.5210 cp         1 7M1      -0.040000
      9 C09         -0.5330     1.2030     0.7210 ca         1 7M1      -0.002000
     10 C10         -1.6250     0.4920     1.1950 ca         1 7M1      -0.319500
     11 S11         -3.1670     1.3150     1.3580 sy         1 7M1       1.286200
     12 O12         -3.7200     1.3230    -0.1730 os         1 7M1      -0.438800
     13 C13         -4.0800     0.1150    -0.7550 ca         1 7M1       0.107100
     14 C14         -5.3610    -0.3780    -0.5660 ca         1 7M1      -0.109000
     15 C15         -5.7220    -1.5590    -1.1980 ca         1 7M1      -0.098500
     16 C16         -4.8090    -2.2360    -1.9960 ca         1 7M1      -0.107000
     17 C17         -3.5300    -1.7260    -2.1730 ca         1 7M1      -0.098500
     18 C18         -3.1560    -0.5440    -1.5490 ca         1 7M1      -0.109000
     19 O19         -4.0540     0.5170     2.1740 o          1 7M1      -0.527000
     20 O20         -2.9720     2.7190     1.6330 o          1 7M1      -0.527000
     21 C21         -1.5340    -0.8580     1.4950 ca         1 7M1      -0.007000
     22 C22         -0.3250    -1.4940     1.2840 ca         1 7M1      -0.129000
     23 C23          0.7870    -0.8140     0.7840 cq         1 7M1       0.045000
     24 C24          2.0220    -1.5800     0.5240 cq         1 7M1      -0.100000
     25 C25          2.5470    -2.4330     1.4950 ca         1 7M1      -0.048500
     26 C26          3.6870    -3.1820     1.2560 ca         1 7M1      -0.179500
     27 C27          4.3230    -3.1010     0.0200 ca         1 7M1       0.151100
     28 O28          5.4250    -3.8490    -0.1720 oh         1 7M1      -0.529100
     29 C29          3.8030    -2.2620    -0.9650 ca         1 7M1      -0.179500
     30 C30          2.6710    -1.5100    -0.7070 ca         1 7M1      -0.048500
     31 H1           4.8820     4.2200    -1.8880 ho         1 7M1       0.466000
     32 H2           2.6940     3.6240    -2.3280 ha         1 7M1       0.124000
     33 H3           0.8140     2.2330    -1.6090 ha         1 7M1       0.119000
     34 H4           5.0410     2.1270     0.9350 ha         1 7M1       0.124000
     35 H5           3.1550     0.7350     1.6460 ha         1 7M1       0.119000
     36 H6          -0.6100     2.2660     0.5280 ha         1 7M1       0.142000
     37 H7          -6.0710     0.1580     0.0500 ha         1 7M1       0.134000
     38 H8          -6.7220    -1.9500    -1.0630 ha         1 7M1       0.120500
     39 H9          -5.0970    -3.1580    -2.4850 ha         1 7M1       0.119000
     40 H10         -2.8180    -2.2460    -2.8000 ha         1 7M1       0.120500
     41 H11         -2.1630    -0.1360    -1.6900 ha         1 7M1       0.134000
     42 H12         -2.3820    -1.4140     1.8710 ha         1 7M1       0.142000
     43 H13         -0.2490    -2.5550     1.4830 ha         1 7M1       0.123000
     44 H14          2.0700    -2.5030     2.4650 ha         1 7M1       0.120000
     45 H15          4.0860    -3.8290     2.0270 ha         1 7M1       0.124500
     46 H16          5.7710    -3.7150    -1.0610 ho         1 7M1       0.467000
     47 H17          4.2790    -2.1990    -1.9370 ha         1 7M1       0.124500
     48 H18          2.2820    -0.8700    -1.4890 ha         1 7M1       0.120000
@<TRIPOS>BOND
     1     1     2 1   
     2     1    31 1   
     3     2     3 ar  
     4     2     5 ar  
     5     3     4 ar  
     6     3    32 1   
     7     4     7 ar  
     8     4    33 1   
     9     5     6 ar  
    10     5    34 1   
    11     6     7 ar  
    12     6    35 1   
    13     7     8 1   
    14     8     9 ar  
    15     8    23 2   
    16     9    10 ar  
    17     9    36 1   
    18    10    11 1   
    19    10    21 ar  
    20    11    12 1   
    21    11    19 2   
    22    11    20 2   
    23    12    13 1   
    24    13    14 ar  
    25    13    18 ar  
    26    14    15 ar  
    27    14    37 1   
    28    15    16 ar  
    29    15    38 1   
    30    16    17 ar  
    31    16    39 1   
    32    17    18 ar  
    33    17    40 1   
    34    18    41 1   
    35    21    22 ar  
    36    21    42 1   
    37    22    23 1   
    38    22    43 1   
    39    23    24 1   
    40    24    25 1   
    41    24    30 2   
    42    25    26 ar  
    43    25    44 1   
    44    26    27 ar  
    45    26    45 1   
    46    27    28 1   
    47    27    29 ar  
    48    28    46 1   
    49    29    30 ar  
    50    29    47 1   
    51    30    48 1   
@<TRIPOS>SUBSTRUCTURE
     1 7M1         1 TEMP              0 ****  ****    0 ROOT
