@<TRIPOS>MOLECULE
7M1
   48    51     1     0     0
SMALL
No Charge or Current Charge


@<TRIPOS>ATOM
      1 O01          5.1170     3.6500    -1.1960 oh         1 7M1      -0.531100
      2 C02          4.0270     2.9370    -0.7970 ca         1 7M1       0.147100
      3 C03          2.7940     3.1040    -1.4470 ca         1 7M1      -0.177500
      4 C04          1.6740     2.3640    -1.0290 ca         1 7M1      -0.054000
      5 C05          4.1390     2.0360     0.2690 ca         1 7M1      -0.177500
      6 C06          3.0200     1.2960     0.6880 ca         1 7M1      -0.054000
      7 C07          1.7670     1.4420     0.0430 cp         1 7M1      -0.088000
      8 C08          0.5740     0.6560     0.4890 cp         1 7M1      -0.040000
      9 C09         -0.6380     1.3550     0.6820 ca         1 7M1      -0.002000
     10 C10         -1.7670     0.6870     1.2030 ca         1 7M1      -0.319500
     11 S11         -3.3210     1.5890     1.4100 sy         1 7M1       1.286200
     12 O12         -3.9160     1.4250    -0.1830 os         1 7M1      -0.438800
     13 C13         -3.9850     0.1760    -0.7450 ca         1 7M1       0.107100
     14 C14         -5.0150    -0.7120    -0.3860 ca         1 7M1      -0.109000
     15 C15         -5.0700    -1.9920    -0.9670 ca         1 7M1      -0.098500
     16 C16         -4.1000    -2.3800    -1.9090 ca         1 7M1      -0.107000
     17 C17         -3.0780    -1.4870    -2.2760 ca         1 7M1      -0.098500
     18 C18         -3.0240    -0.2060    -1.6980 ca         1 7M1      -0.109000
     19 O19         -4.2140     0.8290     2.2980 o          1 7M1      -0.527000
     20 O20         -3.0420     3.0170     1.6190 o          1 7M1      -0.527000
     21 C21         -1.6960    -0.6850     1.5390 ca         1 7M1      -0.007000
     22 C22         -0.5090    -1.4170     1.3500 ca         1 7M1      -0.129000
     23 C23          0.6260    -0.7820     0.8160 cq         1 7M1       0.045000
     24 C24          1.8250    -1.6480     0.5310 cq         1 7M1      -0.100000
     25 C25          2.2600    -2.6050     1.4740 ca         1 7M1      -0.048500
     26 C26          3.3780    -3.4130     1.2030 ca         1 7M1      -0.179500
     27 C27          4.0680    -3.2810    -0.0080 ca         1 7M1       0.151100
     28 O28          5.1500    -4.0700    -0.2580 oh         1 7M1      -0.529100
     29 C29          3.6410    -2.3410    -0.9560 ca         1 7M1      -0.179500
     30 C30          2.5230    -1.5300    -0.6900 ca         1 7M1      -0.048500
     31 H1           4.8540     4.2260    -1.9450 ho         1 7M1       0.466000
     32 H2           2.6960     3.8010    -2.2760 ha         1 7M1       0.124000
     33 H3           0.7270     2.4960    -1.5490 ha         1 7M1       0.119000
     34 H4           5.0930     1.9090     0.7750 ha         1 7M1       0.124000
     35 H5           3.1210     0.6070     1.5240 ha         1 7M1       0.119000
     36 H6          -0.6900     2.4180     0.4520 ha         1 7M1       0.142000
     37 H7          -5.7680    -0.4120     0.3380 ha         1 7M1       0.134000
     38 H8          -5.8640    -2.6820    -0.6870 ha         1 7M1       0.120500
     39 H9          -4.1430    -3.3710    -2.3560 ha         1 7M1       0.119000
     40 H10         -2.3300    -1.7860    -3.0070 ha         1 7M1       0.120500
     41 H11         -2.2330     0.4850    -1.9780 ha         1 7M1       0.134000
     42 H12         -2.5710    -1.2020     1.9310 ha         1 7M1       0.142000
     43 H13         -0.5020    -2.4780     1.5830 ha         1 7M1       0.123000
     44 H14          1.7480    -2.7180     2.4270 ha         1 7M1       0.120000
     45 H15          3.7090    -4.1420     1.9380 ha         1 7M1       0.124500
     46 H16          5.5020    -3.8410    -1.1450 ho         1 7M1       0.467000
     47 H17          4.1660    -2.2330    -1.9020 ha         1 7M1       0.124500
     48 H18          2.2010    -0.8150    -1.4440 ha         1 7M1       0.120000
@<TRIPOS>BOND
     1     1     2 1   
     2     1    31 1   
     3     2     3 ar  
     4     2     5 ar  
     5     3     4 ar  
     6     3    32 1   
     7     4     7 ar  
     8     4    33 1   
     9     5     6 ar  
    10     5    34 1   
    11     6     7 ar  
    12     6    35 1   
    13     7     8 1   
    14     8     9 ar  
    15     8    23 2   
    16     9    10 ar  
    17     9    36 1   
    18    10    11 1   
    19    10    21 ar  
    20    11    12 1   
    21    11    19 2   
    22    11    20 2   
    23    12    13 1   
    24    13    14 ar  
    25    13    18 ar  
    26    14    15 ar  
    27    14    37 1   
    28    15    16 ar  
    29    15    38 1   
    30    16    17 ar  
    31    16    39 1   
    32    17    18 ar  
    33    17    40 1   
    34    18    41 1   
    35    21    22 ar  
    36    21    42 1   
    37    22    23 1   
    38    22    43 1   
    39    23    24 1   
    40    24    25 1   
    41    24    30 2   
    42    25    26 ar  
    43    25    44 1   
    44    26    27 ar  
    45    26    45 1   
    46    27    28 1   
    47    27    29 ar  
    48    28    46 1   
    49    29    30 ar  
    50    29    47 1   
    51    30    48 1   
@<TRIPOS>SUBSTRUCTURE
     1 7M1         1 TEMP              0 ****  ****    0 ROOT
