@<TRIPOS>MOLECULE
7M2
   32    35     1     0     0
SMALL
abcg2


@<TRIPOS>ATOM
      1 N18          2.5110     1.6910    -1.3120 nb         1 7M2      -0.665000
      2 C19          1.5630     1.1330    -0.5700 ca         1 7M2       0.351900
      3 C17          3.7680     1.3060    -1.1170 ca         1 7M2       0.339900
      4 C16          4.1290     0.3570    -0.1730 ca         1 7M2      -0.164000
      5 C15          3.1300    -0.2160     0.5980 ca         1 7M2      -0.061000
      6 C14          1.8100     0.1670     0.4030 ca         1 7M2      -0.176300
      7 C02          0.7000    -0.4760     1.2200 c6         1 7M2       0.349100
      8 N01         -0.3160     0.4450     1.6810 nu         1 7M2      -0.933200
      9 C03          0.0300    -1.5730     0.4550 cc         1 7M2      -0.177300
     10 C13         -1.3590     0.8030     0.8540 ca         1 7M2       0.281000
     11 C08         -1.8050    -0.0920    -0.1310 ca         1 7M2      -0.045200
     12 N07         -1.1340    -1.3200    -0.2200 na         1 7M2       0.144200
     13 C09         -2.8670     0.2420    -0.9570 ca         1 7M2      -0.092000
     14 C06         -1.5210    -2.4510    -0.8910 cc         1 7M2      -0.176000
     15 C05         -0.5910    -3.4250    -0.6460 cd         1 7M2      -0.176000
     16 C04          0.3960    -2.8680     0.2110 cd         1 7M2      -0.155000
     17 C10         -3.5170     1.4590    -0.8060 ca         1 7M2      -0.131000
     18 C11         -3.0920     2.3450     0.1730 ca         1 7M2      -0.079000
     19 C12         -2.0190     2.0240     0.9900 ca         1 7M2      -0.162000
     20 H1           0.5530     1.4810    -0.7620 h4         1 7M2       0.025100
     21 H2           4.5210     1.7770    -1.7380 h4         1 7M2       0.020100
     22 H3           5.1660     0.0800    -0.0440 ha         1 7M2       0.125000
     23 H4           3.3760    -0.9570     1.3500 ha         1 7M2       0.118000
     24 H5           1.1670    -0.9210     2.1020 h1         1 7M2       0.077700
     25 H6           0.0320     1.1870     2.2690 hn         1 7M2       0.472000
     26 H7          -3.1970    -0.4460    -1.7250 ha         1 7M2       0.121000
     27 H8          -2.4310    -2.4870    -1.4640 h4         1 7M2       0.149000
     28 H9          -0.6200    -4.4310    -1.0310 ha         1 7M2       0.134000
     29 H10          1.2760    -3.3580     0.5970 ha         1 7M2       0.132000
     30 H11         -4.3460     1.7080    -1.4540 ha         1 7M2       0.120000
     31 H12         -3.5860     3.3000     0.2980 ha         1 7M2       0.117000
     32 H13         -1.6790     2.7240     1.7440 ha         1 7M2       0.117000
@<TRIPOS>BOND
     1     1     2 ar  
     2     1     3 ar  
     3     2     6 ar  
     4     2    20 1   
     5     3     4 ar  
     6     3    21 1   
     7     4     5 ar  
     8     4    22 1   
     9     5     6 ar  
    10     5    23 1   
    11     6     7 1   
    12     7     8 1   
    13     7     9 1   
    14     7    24 1   
    15     8    10 1   
    16     8    25 1   
    17     9    12 1   
    18     9    16 2   
    19    10    11 ar  
    20    10    19 ar  
    21    11    12 1   
    22    11    13 ar  
    23    12    14 1   
    24    13    17 ar  
    25    13    26 1   
    26    14    15 2   
    27    14    27 1   
    28    15    16 1   
    29    15    28 1   
    30    16    29 1   
    31    17    18 ar  
    32    17    30 1   
    33    18    19 ar  
    34    18    31 1   
    35    19    32 1   
@<TRIPOS>SUBSTRUCTURE
     1 7M2         1 TEMP              0 ****  ****    0 ROOT
