@<TRIPOS>MOLECULE
7M2
   32    35     1     0     0
SMALL
No Charge or Current Charge


@<TRIPOS>ATOM
      1 N18          2.7620     1.1080    -1.6610 nb         1 7M2      -0.665000
      2 C19          1.7590     0.5640    -0.9300 ca         1 7M2       0.351900
      3 C17          3.9920     1.1630    -1.0990 ca         1 7M2       0.339900
      4 C16          4.2630     0.6840     0.1930 ca         1 7M2      -0.164000
      5 C15          3.2220     0.1200     0.9480 ca         1 7M2      -0.061000
      6 C14          1.9390     0.0580     0.3720 ca         1 7M2      -0.176300
      7 C02          0.7670    -0.5470     1.1340 c6         1 7M2       0.349100
      8 N01         -0.1780     0.5160     1.5200 nu         1 7M2      -0.933200
      9 C03         -0.0100    -1.5380     0.3010 cc         1 7M2      -0.177300
     10 C13         -1.3550     0.8210     0.8180 ca         1 7M2       0.281000
     11 C08         -1.9160    -0.1060    -0.0930 ca         1 7M2      -0.045200
     12 N07         -1.2490    -1.3200    -0.2780 na         1 7M2       0.144200
     13 C09         -3.1020     0.2290    -0.7840 ca         1 7M2      -0.092000
     14 C06         -1.7080    -2.4170    -1.0060 cc         1 7M2      -0.176000
     15 C05         -0.7010    -3.3420    -0.8830 cd         1 7M2      -0.176000
     16 C04          0.3420    -2.8050    -0.0860 cd         1 7M2      -0.155000
     17 C10         -3.7200     1.4710    -0.5600 ca         1 7M2      -0.131000
     18 C11         -3.1630     2.3850     0.3490 ca         1 7M2      -0.079000
     19 C12         -1.9820     2.0580     1.0360 ca         1 7M2      -0.162000
     20 H1           0.7810     0.5370    -1.4100 h4         1 7M2       0.025100
     21 H2           4.7830     1.6050    -1.7040 h4         1 7M2       0.020100
     22 H3           5.2690     0.7520     0.5980 ha         1 7M2       0.125000
     23 H4           3.4090    -0.2590     1.9520 ha         1 7M2       0.118000
     24 H5           1.1560    -1.0480     2.0350 h1         1 7M2       0.077700
     25 H6           0.1660     1.2380     2.1540 hn         1 7M2       0.472000
     26 H7          -3.5490    -0.4570    -1.4980 ha         1 7M2       0.121000
     27 H8          -2.6570    -2.4560    -1.5240 h4         1 7M2       0.149000
     28 H9          -0.7040    -4.3330    -1.3280 ha         1 7M2       0.134000
     29 H10          1.2670    -3.3110     0.1760 ha         1 7M2       0.132000
     30 H11         -4.6330     1.7270    -1.0940 ha         1 7M2       0.120000
     31 H12         -3.6450     3.3450     0.5200 ha         1 7M2       0.117000
     32 H13         -1.5550     2.7690     1.7380 ha         1 7M2       0.117000
@<TRIPOS>BOND
     1     1     2 ar  
     2     1     3 ar  
     3     2     6 ar  
     4     2    20 1   
     5     3     4 ar  
     6     3    21 1   
     7     4     5 ar  
     8     4    22 1   
     9     5     6 ar  
    10     5    23 1   
    11     6     7 1   
    12     7     8 1   
    13     7     9 1   
    14     7    24 1   
    15     8    10 1   
    16     8    25 1   
    17     9    12 1   
    18     9    16 2   
    19    10    11 ar  
    20    10    19 ar  
    21    11    12 1   
    22    11    13 ar  
    23    12    14 1   
    24    13    17 ar  
    25    13    26 1   
    26    14    15 2   
    27    14    27 1   
    28    15    16 1   
    29    15    28 1   
    30    16    29 1   
    31    17    18 ar  
    32    17    30 1   
    33    18    19 ar  
    34    18    31 1   
    35    19    32 1   
@<TRIPOS>SUBSTRUCTURE
     1 7M2         1 TEMP              0 ****  ****    0 ROOT
