@<TRIPOS>MOLECULE
7M3
   44    46     1     0     0
SMALL
No Charge or Current Charge


@<TRIPOS>ATOM
      1 N02         -6.3130    -1.3050    -2.0110 nv         1 7M3      -1.073900
      2 C02         -5.6360    -0.9870    -0.9080 ca         1 7M3       0.619900
      3 N01         -4.4960    -0.3820    -1.2120 nb         1 7M3      -0.761000
      4 C10         -3.6930    -0.0040    -0.1880 ca         1 7M3       0.324000
      5 C03         -6.0750    -1.2750     0.3860 ca         1 7M3      -0.209000
      6 C04         -5.2590    -0.8940     1.4600 ca         1 7M3      -0.029000
      7 C05         -4.0450    -0.2460     1.1680 ca         1 7M3      -0.124000
      8 C06         -3.1910     0.1570     2.2110 ca         1 7M3      -0.078000
      9 C07         -1.9800     0.8030     1.9170 ca         1 7M3      -0.104000
     10 C08         -1.6150     1.0520     0.5810 ca         1 7M3      -0.068300
     11 C09         -2.4750     0.6450    -0.4580 ca         1 7M3      -0.090000
     12 C11         -0.3010     1.7510     0.2590 c3         1 7M3       0.208900
     13 O12          0.7040     0.7490     0.0310 os         1 7M3      -0.342100
     14 C25          2.0070     1.0740    -0.2840 ca         1 7M3       0.137100
     15 C24          2.4490     2.4100    -0.4080 ca         1 7M3      -0.198000
     16 C23          3.7910     2.6770    -0.7310 ca         1 7M3      -0.076000
     17 C22          4.6930     1.6190    -0.9300 ca         1 7M3      -0.148000
     18 C26          2.9160     0.0220    -0.4860 ca         1 7M3      -0.123000
     19 C21          4.2610     0.2830    -0.8090 ca         1 7M3      -0.051300
     20 C27          5.2370    -0.8730    -1.0250 c3         1 7M3       0.208100
     21 N28          5.5200    -1.6540     0.2050 n3         1 7M3      -0.710600
     22 C29          6.2970    -2.8810    -0.0750 c3         1 7M3       0.148600
     23 C30          6.1240    -0.8410     1.2860 c3         1 7M3       0.148600
     24 H021        -5.7660    -1.2540    -2.8610 hn         1 7M3       0.480000
     25 H022        -6.9760    -2.0700    -1.9480 hn         1 7M3       0.480000
     26 H03         -7.0220    -1.7780     0.5530 ha         1 7M3       0.120000
     27 H09         -2.1950     0.8310    -1.4920 ha         1 7M3       0.128000
     28 H04         -5.5610    -1.0960     2.4860 ha         1 7M3       0.117000
     29 H06         -3.4620    -0.0300     3.2480 ha         1 7M3       0.112000
     30 H07         -1.3230     1.1090     2.7290 ha         1 7M3       0.124000
     31 H111        -0.4310     2.3790    -0.6320 h1         1 7M3       0.042200
     32 H112        -0.0170     2.4010     1.0970 h1         1 7M3       0.042200
     33 H24          1.7740     3.2470    -0.2590 ha         1 7M3       0.115000
     34 H26          2.5740    -1.0050    -0.3850 ha         1 7M3       0.142000
     35 H23          4.1330     3.7060    -0.8260 ha         1 7M3       0.110000
     36 H22          5.7290     1.8370    -1.1780 ha         1 7M3       0.111000
     37 H271         4.8060    -1.5330    -1.7900 h1         1 7M3       0.038700
     38 H272         6.1750    -0.4800    -1.4420 h1         1 7M3       0.038700
     39 H291         7.2940    -2.6340    -0.4630 h1         1 7M3       0.031367
     40 H292         6.4220    -3.4790     0.8380 h1         1 7M3       0.031367
     41 H293         5.7830    -3.5060    -0.8180 h1         1 7M3       0.031367
     42 H301         5.4730    -0.0010     1.5600 h1         1 7M3       0.031367
     43 H302         6.2790    -1.4490     2.1880 h1         1 7M3       0.031367
     44 H303         7.0970    -0.4360     0.9740 h1         1 7M3       0.031367
@<TRIPOS>BOND
     1     1     2 1   
     2     1    24 1   
     3     1    25 1   
     4     2     3 ar  
     5     2     5 ar  
     6     3     4 ar  
     7     4     7 ar  
     8     4    11 ar  
     9     5     6 ar  
    10     5    26 1   
    11     6     7 ar  
    12     6    28 1   
    13     7     8 ar  
    14     8     9 ar  
    15     8    29 1   
    16     9    10 ar  
    17     9    30 1   
    18    10    11 ar  
    19    10    12 1   
    20    11    27 1   
    21    12    13 1   
    22    12    31 1   
    23    12    32 1   
    24    13    14 1   
    25    14    15 ar  
    26    14    18 ar  
    27    15    16 ar  
    28    15    33 1   
    29    16    17 ar  
    30    16    35 1   
    31    17    19 ar  
    32    17    36 1   
    33    18    19 ar  
    34    18    34 1   
    35    19    20 1   
    36    20    21 1   
    37    20    37 1   
    38    20    38 1   
    39    21    22 1   
    40    21    23 1   
    41    22    39 1   
    42    22    40 1   
    43    22    41 1   
    44    23    42 1   
    45    23    43 1   
    46    23    44 1   
@<TRIPOS>SUBSTRUCTURE
     1 7M3         1 TEMP              0 ****  ****    0 ROOT
