@<TRIPOS>MOLECULE
7M3
   44    46     1     0     0
SMALL
bcc


@<TRIPOS>ATOM
      1 N02         -7.1230    -0.1900    -1.3130 nv         1 7M3      -0.963500
      2 C02         -6.0060    -0.3670    -0.5660 ca         1 7M3       0.685200
      3 N01         -4.9020     0.2340    -0.9450 nb         1 7M3      -0.761000
      4 C10         -3.7930     0.1030    -0.1800 ca         1 7M3       0.454600
      5 C03         -6.0830    -1.1650     0.6190 ca         1 7M3      -0.292300
      6 C04         -4.9740    -1.3040     1.3870 ca         1 7M3      -0.047000
      7 C05         -3.7680    -0.6600     1.0100 ca         1 7M3      -0.189300
      8 C06         -2.5760    -0.7500     1.7560 ca         1 7M3      -0.096000
      9 C07         -1.4410    -0.1060     1.3420 ca         1 7M3      -0.122000
     10 C08         -1.4530     0.6550     0.1520 ca         1 7M3      -0.068300
     11 C09         -2.6050     0.7490    -0.5890 ca         1 7M3      -0.173300
     12 C11         -0.2180     1.3890    -0.2800 c3         1 7M3       0.185700
     13 O12          0.8540     0.4640    -0.3150 os         1 7M3      -0.318900
     14 C25          2.0940     0.9230    -0.5920 ca         1 7M3       0.137100
     15 C24          2.3760     2.2370    -0.9620 ca         1 7M3      -0.216000
     16 C23          3.6920     2.5950    -1.2290 ca         1 7M3      -0.094000
     17 C22          4.7190     1.6700    -1.1310 ca         1 7M3      -0.166000
     18 C26          3.1260    -0.0090    -0.4960 ca         1 7M3      -0.141000
     19 C21          4.4380     0.3550    -0.7660 ca         1 7M3      -0.051300
     20 C27          5.5400    -0.6700    -0.6960 c3         1 7M3       0.208100
     21 N28          5.4680    -1.5010     0.4890 n3         1 7M3      -0.710600
     22 C29          6.3850    -2.6160     0.3960 c3         1 7M3       0.148600
     23 C30          5.7020    -0.7370     1.6960 c3         1 7M3       0.148600
     24 H021        -7.0140     0.2000    -2.2350 hn         1 7M3       0.424800
     25 H022        -7.8980    -0.8190    -1.1950 hn         1 7M3       0.424800
     26 H03         -7.0150    -1.6460     0.8870 ha         1 7M3       0.138000
     27 H09         -2.6250     1.3260    -1.5060 ha         1 7M3       0.146000
     28 H04         -5.0020    -1.9040     2.2880 ha         1 7M3       0.135000
     29 H06         -2.5680    -1.3360     2.6670 ha         1 7M3       0.130000
     30 H07         -0.5340    -0.1780     1.9290 ha         1 7M3       0.142000
     31 H111        -0.3770     1.8470    -1.2620 h1         1 7M3       0.042200
     32 H112         0.0030     2.1960     0.4290 h1         1 7M3       0.042200
     33 H24          1.6010     2.9850    -1.0470 ha         1 7M3       0.133000
     34 H26          2.8990    -1.0250    -0.1950 ha         1 7M3       0.160000
     35 H23          3.9120     3.6160    -1.5100 ha         1 7M3       0.128000
     36 H22          5.7400     1.9670    -1.3350 ha         1 7M3       0.129000
     37 H271         5.4630    -1.3260    -1.5690 h1         1 7M3       0.038700
     38 H272         6.5140    -0.1590    -0.7830 h1         1 7M3       0.038700
     39 H291         7.4400    -2.3070     0.3350 h1         1 7M3       0.031367
     40 H292         6.2780    -3.2580     1.2720 h1         1 7M3       0.031367
     41 H293         6.1620    -3.2150    -0.4880 h1         1 7M3       0.031367
     42 H301         4.9600     0.0550     1.8000 h1         1 7M3       0.031367
     43 H302         5.6170    -1.3870     2.5680 h1         1 7M3       0.031367
     44 H303         6.6990    -0.2700     1.7220 h1         1 7M3       0.031367
@<TRIPOS>BOND
     1     1     2 1   
     2     1    24 1   
     3     1    25 1   
     4     2     3 ar  
     5     2     5 ar  
     6     3     4 ar  
     7     4     7 ar  
     8     4    11 ar  
     9     5     6 ar  
    10     5    26 1   
    11     6     7 ar  
    12     6    28 1   
    13     7     8 ar  
    14     8     9 ar  
    15     8    29 1   
    16     9    10 ar  
    17     9    30 1   
    18    10    11 ar  
    19    10    12 1   
    20    11    27 1   
    21    12    13 1   
    22    12    31 1   
    23    12    32 1   
    24    13    14 1   
    25    14    15 ar  
    26    14    18 ar  
    27    15    16 ar  
    28    15    33 1   
    29    16    17 ar  
    30    16    35 1   
    31    17    19 ar  
    32    17    36 1   
    33    18    19 ar  
    34    18    34 1   
    35    19    20 1   
    36    20    21 1   
    37    20    37 1   
    38    20    38 1   
    39    21    22 1   
    40    21    23 1   
    41    22    39 1   
    42    22    40 1   
    43    22    41 1   
    44    23    42 1   
    45    23    43 1   
    46    23    44 1   
@<TRIPOS>SUBSTRUCTURE
     1 7M3         1 TEMP              0 ****  ****    0 ROOT
