@<TRIPOS>MOLECULE
7M5
   30    33     1     0     0
SMALL
No Charge or Current Charge


@<TRIPOS>ATOM
      1 C11          1.5630     1.0760    -0.0040 ca         1 7M5       0.240000
      2 C12          2.3590     2.2380     0.0320 ca         1 7M5      -0.059000
      3 C14          3.7610     2.1600     0.0910 ca         1 7M5      -0.118000
      4 C16          4.3920     0.9090     0.1180 ca         1 7M5      -0.086000
      5 C18          3.6220    -0.2640     0.0840 ca         1 7M5      -0.122000
      6 C20          2.2110    -0.1880     0.0220 ca         1 7M5      -0.058000
      7 C21         -2.0260     0.3210    -0.0380 ca         1 7M5      -0.204500
      8 C22         -2.8920    -0.6110     0.5800 ca         1 7M5      -0.051000
      9 N28         -3.9260     1.7960    -0.4620 nb         1 7M5      -0.670000
     10 C29         -2.5990     1.5260    -0.5050 ca         1 7M5       0.376900
     11 C26         -4.7420     0.8740     0.0920 ca         1 7M5       0.346900
     12 C24         -4.2660    -0.3290     0.6300 ca         1 7M5      -0.172000
     13 C09         -0.5660     0.1380    -0.0940 cc         1 7M5       0.479500
     14 C06          0.0490    -1.1690    -0.0900 cc         1 7M5      -0.186000
     15 C07         -0.4590    -2.4380    -0.2470 cd         1 7M5      -0.204000
     16 C02          0.6340    -3.3460    -0.2280 cd         1 7M5      -0.232000
     17 C03          1.8130    -2.6470    -0.0860 cc         1 7M5      -0.208100
     18 N05          1.4070    -1.3160    -0.0190 na         1 7M5       0.155100
     19 N10          0.1590     1.2660    -0.0540 nd         1 7M5      -0.670000
     20 H1           1.8790     3.2130     0.0140 ha         1 7M5       0.136000
     21 H2           4.3550     3.0710     0.1180 ha         1 7M5       0.122000
     22 H3           5.4770     0.8470     0.1650 ha         1 7M5       0.119000
     23 H4           4.1350    -1.2220     0.1070 ha         1 7M5       0.122000
     24 H5          -2.5200    -1.5090     1.0630 ha         1 7M5       0.127000
     25 H6          -1.9880     2.3010    -0.9670 h4         1 7M5       0.034100
     26 H7          -5.8040     1.1160     0.1210 h4         1 7M5       0.020100
     27 H8          -4.9580    -1.0250     1.0970 ha         1 7M5       0.125000
     28 H9          -1.4980    -2.7170    -0.4080 ha         1 7M5       0.209000
     29 H10          0.5580    -4.4270    -0.3370 ha         1 7M5       0.206000
     30 H11          2.8440    -2.9760    -0.0490 h4         1 7M5       0.221000
@<TRIPOS>BOND
     1     1     2 ar  
     2     1     6 ar  
     3     1    19 1   
     4     2     3 ar  
     5     2    20 1   
     6     3     4 ar  
     7     3    21 1   
     8     4     5 ar  
     9     4    22 1   
    10     5     6 ar  
    11     5    23 1   
    12     6    18 1   
    13     7     8 ar  
    14     7    10 ar  
    15     7    13 1   
    16     8    12 ar  
    17     8    24 1   
    18     9    10 ar  
    19     9    11 ar  
    20    10    25 1   
    21    11    12 ar  
    22    11    26 1   
    23    12    27 1   
    24    13    14 1   
    25    13    19 2   
    26    14    15 2   
    27    14    18 1   
    28    15    16 1   
    29    15    28 1   
    30    16    17 2   
    31    16    29 1   
    32    17    18 1   
    33    17    30 1   
@<TRIPOS>SUBSTRUCTURE
     1 7M5         1 TEMP              0 ****  ****    0 ROOT
