@<TRIPOS>MOLECULE
7M5
   30    33     1     0     0
SMALL
abcg2


@<TRIPOS>ATOM
      1 C11          1.5630     1.0730     0.0780 ca         1 7M5       0.240000
      2 C12          2.3420     2.2350     0.1540 ca         1 7M5      -0.059000
      3 C14          3.7190     2.1630     0.1660 ca         1 7M5      -0.118000
      4 C16          4.3500     0.9190     0.1060 ca         1 7M5      -0.086000
      5 C18          3.6080    -0.2430     0.0320 ca         1 7M5      -0.122000
      6 C20          2.2170    -0.1690     0.0150 ca         1 7M5      -0.058000
      7 C21         -2.0000     0.3130     0.0310 ca         1 7M5      -0.204500
      8 C22         -2.8560    -0.5080     0.7570 ca         1 7M5      -0.051000
      9 N28         -3.8650     1.6280    -0.7050 nb         1 7M5      -0.670000
     10 C29         -2.5670     1.3730    -0.6770 ca         1 7M5       0.376900
     11 C26         -4.6720     0.8330    -0.0090 ca         1 7M5       0.346900
     12 C24         -4.2160    -0.2430     0.7370 ca         1 7M5      -0.172000
     13 C09         -0.5360     0.1330     0.0180 cc         1 7M5       0.479500
     14 C06          0.0250    -1.1760    -0.0910 cc         1 7M5      -0.186000
     15 C07         -0.4980    -2.4470    -0.2490 cd         1 7M5      -0.204000
     16 C02          0.5890    -3.3330    -0.3160 cd         1 7M5      -0.232000
     17 C03          1.7490    -2.5970    -0.2080 cc         1 7M5      -0.208100
     18 N05          1.4070    -1.2910    -0.0750 na         1 7M5       0.155100
     19 N10          0.1940     1.2000     0.0840 nd         1 7M5      -0.670000
     20 H1           1.8330     3.1890     0.2040 ha         1 7M5       0.136000
     21 H2           4.3090     3.0670     0.2250 ha         1 7M5       0.122000
     22 H3           5.4300     0.8580     0.1160 ha         1 7M5       0.119000
     23 H4           4.1130    -1.1980    -0.0150 ha         1 7M5       0.122000
     24 H5          -2.4710    -1.3270     1.3500 ha         1 7M5       0.127000
     25 H6          -1.9280     2.0330    -1.2530 h4         1 7M5       0.034100
     26 H7          -5.7300     1.0650    -0.0420 h4         1 7M5       0.020100
     27 H8          -4.9100    -0.8540     1.2970 ha         1 7M5       0.125000
     28 H9          -1.5420    -2.7040    -0.3220 ha         1 7M5       0.209000
     29 H10          0.5420    -4.4030    -0.4370 ha         1 7M5       0.206000
     30 H11          2.7750    -2.9230    -0.2240 h4         1 7M5       0.221000
@<TRIPOS>BOND
     1     1     2 ar  
     2     1     6 ar  
     3     1    19 1   
     4     2     3 ar  
     5     2    20 1   
     6     3     4 ar  
     7     3    21 1   
     8     4     5 ar  
     9     4    22 1   
    10     5     6 ar  
    11     5    23 1   
    12     6    18 1   
    13     7     8 ar  
    14     7    10 ar  
    15     7    13 1   
    16     8    12 ar  
    17     8    24 1   
    18     9    10 ar  
    19     9    11 ar  
    20    10    25 1   
    21    11    12 ar  
    22    11    26 1   
    23    12    27 1   
    24    13    14 1   
    25    13    19 2   
    26    14    15 2   
    27    14    18 1   
    28    15    16 1   
    29    15    28 1   
    30    16    17 2   
    31    16    29 1   
    32    17    18 1   
    33    17    30 1   
@<TRIPOS>SUBSTRUCTURE
     1 7M5         1 TEMP              0 ****  ****    0 ROOT
