@<TRIPOS>MOLECULE
7M6
   26    27     1     0     0
SMALL
No Charge or Current Charge


@<TRIPOS>ATOM
      1 C1           0.6550    -0.5720    -0.0880 ca         1 7M6      -0.330500
      2 C2          -0.2190     0.5110    -0.1960 ca         1 7M6       0.428000
      3 N1          -1.6080     0.3100    -0.1950 nh         1 7M6      -0.825400
      4 C3          -2.1340    -0.9840    -0.5980 c6         1 7M6       0.477000
      5 N2          -1.6140    -1.9450     0.3350 n7         1 7M6      -0.867300
      6 S1          -0.0010    -2.2060     0.0850 sy         1 7M6       1.141600
      7 C4           2.0520    -0.3790    -0.0880 ca         1 7M6       0.030000
      8 C5           2.5760     0.9180    -0.2060 ca         1 7M6       0.055000
      9 C6           1.7080     2.0140    -0.3220 ca         1 7M6      -0.010000
     10 C7           0.3170     1.8080    -0.3170 ca         1 7M6      -0.196000
     11 Cl1          4.3180     1.1680    -0.2100 cl         1 7M6      -0.190000
     12 O1           0.1030    -2.9040    -1.1970 o          1 7M6      -0.534000
     13 O2           0.5270    -2.7880     1.3210 o          1 7M6      -0.534000
     14 C8          -2.5450     1.2580     0.4670 c3         1 7M6       0.194800
     15 C9          -3.3780     2.1170    -0.5100 c3         1 7M6       0.152600
     16 F1          -4.1910     2.9590     0.1770 f          1 7M6      -0.260000
     17 H1          -3.2350    -0.9790    -0.5390 h2         1 7M6       0.062700
     18 H2          -1.8320    -1.2210    -1.6320 h2         1 7M6       0.062700
     19 H3          -1.9860    -2.8560     0.0860 hn         1 7M6       0.494000
     20 H4           2.7300    -1.2260     0.0050 ha         1 7M6       0.144000
     21 H5           2.1120     3.0190    -0.4180 ha         1 7M6       0.131000
     22 H6          -0.3420     2.6640    -0.4190 ha         1 7M6       0.120000
     23 H7          -3.2360     0.7010     1.1130 h1         1 7M6       0.074200
     24 H8          -1.9890     1.9320     1.1330 h1         1 7M6       0.074200
     25 H9          -2.7140     2.7120    -1.1490 h1         1 7M6       0.052700
     26 H10         -3.9960     1.4710    -1.1460 h1         1 7M6       0.052700
@<TRIPOS>BOND
     1     1     2 ar  
     2     1     6 1   
     3     1     7 ar  
     4     2     3 1   
     5     2    10 ar  
     6     3     4 1   
     7     3    14 1   
     8     4     5 1   
     9     4    17 1   
    10     4    18 1   
    11     5     6 1   
    12     5    19 1   
    13     6    12 2   
    14     6    13 2   
    15     7     8 ar  
    16     7    20 1   
    17     8     9 ar  
    18     8    11 1   
    19     9    10 ar  
    20     9    21 1   
    21    10    22 1   
    22    14    15 1   
    23    14    23 1   
    24    14    24 1   
    25    15    16 1   
    26    15    25 1   
    27    15    26 1   
@<TRIPOS>SUBSTRUCTURE
     1 7M6         1 TEMP              0 ****  ****    0 ROOT
