@<TRIPOS>MOLECULE
7M6
   26    27     1     0     0
SMALL
abcg2


@<TRIPOS>ATOM
      1 C1           0.5860    -0.5440    -0.1520 ca         1 7M6      -0.330500
      2 C2          -0.3300     0.5120     0.0340 ca         1 7M6       0.428000
      3 N1          -1.6700     0.2900     0.1880 nh         1 7M6      -0.825400
      4 C3          -2.2060    -1.0080    -0.1440 c6         1 7M6       0.477000
      5 N2          -1.4000    -2.0320     0.5010 n7         1 7M6      -0.867300
      6 S1           0.0700    -2.2290    -0.2260 sy         1 7M6       1.141600
      7 C4           1.9540    -0.3320    -0.2760 ca         1 7M6       0.030000
      8 C5           2.4490     0.9520    -0.2280 ca         1 7M6       0.055000
      9 C6           1.5790     2.0200    -0.0480 ca         1 7M6      -0.010000
     10 C7           0.2240     1.8040     0.0790 ca         1 7M6      -0.196000
     11 CL1          4.1490     1.2330    -0.3870 cl         1 7M6      -0.190000
     12 O1          -0.0330    -2.6320    -1.6220 o          1 7M6      -0.534000
     13 O2           0.8960    -3.0550     0.6400 o          1 7M6      -0.534000
     14 C8          -2.6110     1.3690     0.3830 c3         1 7M6       0.194800
     15 C9          -3.0450     1.9930    -0.9340 c3         1 7M6       0.152600
     16 F1          -3.9430     3.0190    -0.6670 f          1 7M6      -0.260000
     17 H1          -3.2140    -1.0910     0.2540 h2         1 7M6       0.062700
     18 H2          -2.2670    -1.1520    -1.2310 h2         1 7M6       0.062700
     19 H3          -1.8840    -2.9140     0.6420 hn         1 7M6       0.494000
     20 H4           2.6270    -1.1690    -0.4020 ha         1 7M6       0.144000
     21 H5           1.9570     3.0330    -0.0120 ha         1 7M6       0.131000
     22 H6          -0.4100     2.6700     0.2040 ha         1 7M6       0.120000
     23 H7          -3.4820     0.9710     0.9060 h1         1 7M6       0.074200
     24 H8          -2.1810     2.1260     1.0410 h1         1 7M6       0.074200
     25 H9          -2.1960     2.4090    -1.4790 h1         1 7M6       0.052700
     26 H10         -3.5410     1.2580    -1.5710 h1         1 7M6       0.052700
@<TRIPOS>BOND
     1     1     2 ar  
     2     1     6 1   
     3     1     7 ar  
     4     2     3 1   
     5     2    10 ar  
     6     3     4 1   
     7     3    14 1   
     8     4     5 1   
     9     4    17 1   
    10     4    18 1   
    11     5     6 1   
    12     5    19 1   
    13     6    12 2   
    14     6    13 2   
    15     7     8 ar  
    16     7    20 1   
    17     8     9 ar  
    18     8    11 1   
    19     9    10 ar  
    20     9    21 1   
    21    10    22 1   
    22    14    15 1   
    23    14    23 1   
    24    14    24 1   
    25    15    16 1   
    26    15    25 1   
    27    15    26 1   
@<TRIPOS>SUBSTRUCTURE
     1 7M6         1 TEMP              0 ****  ****    0 ROOT
