@<TRIPOS>MOLECULE
7M7
   48    51     1     0     0
SMALL
abcg2


@<TRIPOS>ATOM
      1 O01          6.8000    -2.1540     2.2040 oh         1 7M7      -0.530100
      2 C02          5.6330    -1.8320     1.6150 ca         1 7M7       0.148100
      3 C03          4.3970    -2.0820     2.2040 ca         1 7M7      -0.177000
      4 C04          3.2320    -1.7250     1.5440 ca         1 7M7      -0.053500
      5 C05          5.6830    -1.2250     0.3600 ca         1 7M7      -0.177000
      6 C06          4.5130    -0.8690    -0.2830 ca         1 7M7      -0.053500
      7 C07          3.2670    -1.1100     0.2950 cp         1 7M7      -0.090000
      8 C08          2.0110    -0.7670    -0.4060 cp         1 7M7      -0.038000
      9 C09          1.0500    -1.7610    -0.5570 ca         1 7M7      -0.002000
     10 C10         -0.1250    -1.5000    -1.2480 ca         1 7M7      -0.322500
     11 S11         -1.3360    -2.7640    -1.3710 sy         1 7M7       1.285200
     12 O12         -2.0810    -2.6780     0.0800 os         1 7M7      -0.435800
     13 C13         -2.8170    -1.5440     0.3740 ca         1 7M7       0.120100
     14 C14         -4.1280    -1.4400    -0.0610 ca         1 7M7      -0.110500
     15 C15         -4.8680    -0.3180     0.2780 ca         1 7M7      -0.072500
     16 C16         -4.2810     0.6830     1.0400 ca         1 7M7      -0.021900
     17 BR1         -5.2880     2.2090     1.4970 br         1 7M7      -0.085100
     18 C18         -2.9680     0.5770     1.4760 ca         1 7M7      -0.072500
     19 C19         -2.2300    -0.5470     1.1360 ca         1 7M7      -0.110500
     20 O20         -2.2900    -2.4170    -2.4000 o          1 7M7      -0.524000
     21 O21         -0.7260    -4.0710    -1.3360 o          1 7M7      -0.524000
     22 C22         -0.3750    -0.2570    -1.8080 ca         1 7M7      -0.008000
     23 C23          0.5770     0.7330    -1.6490 ca         1 7M7      -0.130000
     24 C24          1.7630     0.5090    -0.9480 cq         1 7M7       0.048000
     25 C25          2.7070     1.6340    -0.7930 cq         1 7M7      -0.102000
     26 C26          3.0710     2.4020    -1.8970 ca         1 7M7      -0.048000
     27 C27          3.9310     3.4810    -1.7720 ca         1 7M7      -0.180000
     28 C28          4.4390     3.8230    -0.5220 ca         1 7M7       0.152100
     29 O29          5.2730     4.8620    -0.3350 oh         1 7M7      -0.528100
     30 C30          4.0750     3.0700     0.5940 ca         1 7M7      -0.180000
     31 C31          3.2260     1.9890     0.4530 ca         1 7M7      -0.048000
     32 H1           6.6420    -2.5680     3.0600 ho         1 7M7       0.467000
     33 H2           4.3390    -2.5530     3.1790 ha         1 7M7       0.124000
     34 H3           2.2800    -1.9160     2.0250 ha         1 7M7       0.118500
     35 H4           6.6410    -1.0370    -0.1080 ha         1 7M7       0.124000
     36 H5           4.5750    -0.4020    -1.2580 ha         1 7M7       0.118500
     37 H6           1.2450    -2.7490    -0.1590 ha         1 7M7       0.142000
     38 H7          -4.5820    -2.2300    -0.6430 ha         1 7M7       0.139500
     39 H8          -5.8930    -0.2360    -0.0570 ha         1 7M7       0.136500
     40 H9          -2.5100     1.3540     2.0720 ha         1 7M7       0.136500
     41 H10         -1.2080    -0.6450     1.4770 ha         1 7M7       0.139500
     42 H11         -1.2870    -0.0500    -2.3490 ha         1 7M7       0.142000
     43 H12          0.3790     1.7160    -2.0540 ha         1 7M7       0.124000
     44 H13          2.6960     2.1450    -2.8800 ha         1 7M7       0.120500
     45 H14          4.2060     4.0530    -2.6510 ha         1 7M7       0.125000
     46 H15          5.4440     5.3100    -1.1700 ho         1 7M7       0.467000
     47 H16          4.4570     3.3380     1.5710 ha         1 7M7       0.125000
     48 H17          2.9540     1.4220     1.3330 ha         1 7M7       0.120500
@<TRIPOS>BOND
     1     1     2 1   
     2     1    32 1   
     3     2     3 ar  
     4     2     5 ar  
     5     3     4 ar  
     6     3    33 1   
     7     4     7 ar  
     8     4    34 1   
     9     5     6 ar  
    10     5    35 1   
    11     6     7 ar  
    12     6    36 1   
    13     7     8 1   
    14     8     9 ar  
    15     8    24 2   
    16     9    10 ar  
    17     9    37 1   
    18    10    11 1   
    19    10    22 ar  
    20    11    12 1   
    21    11    20 2   
    22    11    21 2   
    23    12    13 1   
    24    13    14 ar  
    25    13    19 ar  
    26    14    15 ar  
    27    14    38 1   
    28    15    16 ar  
    29    15    39 1   
    30    16    17 1   
    31    16    18 ar  
    32    18    19 ar  
    33    18    40 1   
    34    19    41 1   
    35    22    23 ar  
    36    22    42 1   
    37    23    24 1   
    38    23    43 1   
    39    24    25 1   
    40    25    26 1   
    41    25    31 2   
    42    26    27 ar  
    43    26    44 1   
    44    27    28 ar  
    45    27    45 1   
    46    28    29 1   
    47    28    30 ar  
    48    29    46 1   
    49    30    31 ar  
    50    30    47 1   
    51    31    48 1   
@<TRIPOS>SUBSTRUCTURE
     1 7M7         1 TEMP              0 ****  ****    0 ROOT
