@<TRIPOS>MOLECULE
7M7
   48    51     1     0     0
SMALL
No Charge or Current Charge


@<TRIPOS>ATOM
      1 O01          6.7160    -1.9840     2.3720 oh         1 7M7      -0.530100
      2 C02          5.5520    -1.7300     1.7110 ca         1 7M7       0.148100
      3 C03          4.3240    -2.1370     2.2560 ca         1 7M7      -0.177000
      4 C04          3.1270    -1.8710     1.5670 ca         1 7M7      -0.053500
      5 C05          5.5840    -1.0620     0.4800 ca         1 7M7      -0.177000
      6 C06          4.3890    -0.7950    -0.2090 ca         1 7M7      -0.053500
      7 C07          3.1370    -1.1900     0.3240 cp         1 7M7      -0.090000
      8 C08          1.8620    -0.9080    -0.4100 cp         1 7M7      -0.038000
      9 C09          0.9390    -1.9670    -0.5520 ca         1 7M7      -0.002000
     10 C10         -0.2320    -1.7870    -1.3200 ca         1 7M7      -0.322500
     11 S11         -1.4310    -3.1370    -1.4460 sy         1 7M7       1.285200
     12 O12         -2.2590    -2.8740     0.0260 os         1 7M7      -0.435800
     13 C13         -2.6060    -1.5940     0.3740 ca         1 7M7       0.120100
     14 C14         -3.6690    -0.9390    -0.2750 ca         1 7M7      -0.110500
     15 C15         -3.9970     0.3820     0.0770 ca         1 7M7      -0.072500
     16 C16         -3.2660     1.0420     1.0810 ca         1 7M7      -0.021900
     17 Br1         -3.7060     2.8420     1.5540 br         1 7M7      -0.085100
     18 C18         -2.2150     0.3820     1.7410 ca         1 7M7      -0.072500
     19 C19         -1.8890    -0.9400     1.3900 ca         1 7M7      -0.110500
     20 O20         -2.3730    -2.8570    -2.5380 o          1 7M7      -0.524000
     21 O21         -0.7400    -4.4280    -1.3230 o          1 7M7      -0.524000
     22 C22         -0.4870    -0.5510    -1.9590 ca         1 7M7      -0.008000
     23 C23          0.4050     0.5280    -1.8310 ca         1 7M7      -0.130000
     24 C24          1.5680     0.3850    -1.0540 cq         1 7M7       0.048000
     25 C25          2.4160     1.6150    -0.8590 cq         1 7M7      -0.102000
     26 C26          2.7190     2.4600    -1.9500 ca         1 7M7      -0.048000
     27 C27          3.5080     3.6090    -1.7640 ca         1 7M7      -0.180000
     28 C28          3.9970     3.9290    -0.4890 ca         1 7M7       0.152100
     29 O29          4.7610     5.0410    -0.3030 oh         1 7M7      -0.528100
     30 C30          3.6950     3.1030     0.6000 ca         1 7M7      -0.180000
     31 C31          2.9070     1.9530     0.4200 ca         1 7M7      -0.048000
     32 H1           6.5030    -2.4560     3.2050 ho         1 7M7       0.467000
     33 H2           4.2880    -2.6560     3.2110 ha         1 7M7       0.124000
     34 H3           2.1820    -2.1820     2.0070 ha         1 7M7       0.118500
     35 H4           6.5350    -0.7500     0.0570 ha         1 7M7       0.124000
     36 H5           4.4310    -0.2830    -1.1680 ha         1 7M7       0.118500
     37 H6           1.1440    -2.9280    -0.0850 ha         1 7M7       0.142000
     38 H7          -4.2350    -1.4500    -1.0500 ha         1 7M7       0.139500
     39 H8          -4.8140     0.8930    -0.4280 ha         1 7M7       0.136500
     40 H9          -1.6520     0.8940     2.5200 ha         1 7M7       0.136500
     41 H10         -1.0720    -1.4510     1.8930 ha         1 7M7       0.139500
     42 H11         -1.3960    -0.4110    -2.5430 ha         1 7M7       0.142000
     43 H12          0.1560     1.4760    -2.3020 ha         1 7M7       0.124000
     44 H13          2.3590     2.2250    -2.9490 ha         1 7M7       0.120500
     45 H14          3.7350     4.2440    -2.6170 ha         1 7M7       0.125000
     46 H15          4.8660     5.4930    -1.1670 ho         1 7M7       0.467000
     47 H16          4.0700     3.3530     1.5890 ha         1 7M7       0.125000
     48 H17          2.6760     1.3330     1.2840 ha         1 7M7       0.120500
@<TRIPOS>BOND
     1     1     2 1   
     2     1    32 1   
     3     2     3 ar  
     4     2     5 ar  
     5     3     4 ar  
     6     3    33 1   
     7     4     7 ar  
     8     4    34 1   
     9     5     6 ar  
    10     5    35 1   
    11     6     7 ar  
    12     6    36 1   
    13     7     8 1   
    14     8     9 ar  
    15     8    24 2   
    16     9    10 ar  
    17     9    37 1   
    18    10    11 1   
    19    10    22 ar  
    20    11    12 1   
    21    11    20 2   
    22    11    21 2   
    23    12    13 1   
    24    13    14 ar  
    25    13    19 ar  
    26    14    15 ar  
    27    14    38 1   
    28    15    16 ar  
    29    15    39 1   
    30    16    17 1   
    31    16    18 ar  
    32    18    19 ar  
    33    18    40 1   
    34    19    41 1   
    35    22    23 ar  
    36    22    42 1   
    37    23    24 1   
    38    23    43 1   
    39    24    25 1   
    40    25    26 1   
    41    25    31 2   
    42    26    27 ar  
    43    26    44 1   
    44    27    28 ar  
    45    27    45 1   
    46    28    29 1   
    47    28    30 ar  
    48    29    46 1   
    49    30    31 ar  
    50    30    47 1   
    51    31    48 1   
@<TRIPOS>SUBSTRUCTURE
     1 7M7         1 TEMP              0 ****  ****    0 ROOT
