@<TRIPOS>MOLECULE
7M8
   55    59     1     0     0
SMALL
No Charge or Current Charge


@<TRIPOS>ATOM
      1 C1           3.5910     2.9100     0.0750 ca         1 7M8      -0.132000
      2 C2           2.2100     2.8010     0.2760 ca         1 7M8      -0.019000
      3 C3           1.5610     1.5600     0.1050 ca         1 7M8      -0.164600
      4 C4           2.3130     0.4290    -0.2700 ca         1 7M8       0.025000
      5 C8           6.7790    -0.6700     0.2110 c3         1 7M8      -0.081400
      6 C9           8.3020    -0.6410    -0.0190 c3         1 7M8       0.163600
      7 C10          1.6570    -0.8040    -0.4360 ca         1 7M8      -0.167600
      8 C11          2.4030    -1.9390    -0.8090 ca         1 7M8      -0.014000
      9 C12          3.7850    -1.8440    -1.0170 ca         1 7M8      -0.133000
     10 C13          0.1740    -0.9300    -0.2170 c          1 7M8       0.592600
     11 C14         -1.9540     0.1090     0.3790 ca         1 7M8       0.036600
     12 C15         -2.4700    -0.1280     1.6850 ca         1 7M8      -0.046300
     13 C16         -3.8630    -0.2930     1.8700 ca         1 7M8      -0.109000
     14 C17         -4.7110    -0.1100     0.7710 ca         1 7M8       0.015600
     15 C18         -4.2030     0.1130    -0.5010 ca         1 7M8       0.002600
     16 C19         -2.8240     0.1740    -0.7320 ca         1 7M8      -0.081000
     17 C20         -6.4340    -0.4640    -0.7380 c          1 7M8       0.598000
     18 C24          0.0760     1.4640     0.3270 c          1 7M8       0.592600
     19 O3          -0.5770     2.4510     0.6460 o          1 7M8      -0.507000
     20 N           -0.5390     0.2160     0.1580 n          1 7M8      -0.299600
     21 O2          -0.3930    -2.0070    -0.3600 o          1 7M8      -0.507000
     22 C6           4.4570    -0.6190    -0.8590 ca         1 7M8      -0.018300
     23 C7           5.9680    -0.5970    -1.1030 c3         1 7M8      -0.042100
     24 O            8.9820    -0.7170     1.2380 oh         1 7M8      -0.659000
     25 C5           3.7150     0.5320    -0.4790 ca         1 7M8      -0.054000
     26 C            4.3410     1.7870    -0.2990 ca         1 7M8      -0.058000
     27 N1          -5.2590    -0.1290    -1.4240 n          1 7M8      -0.290000
     28 C22         -5.2200     0.2330    -2.8510 c3         1 7M8       0.106300
     29 O1          -7.5450    -0.6550    -1.2140 o          1 7M8      -0.566000
     30 N2          -6.0740    -0.4850     0.6170 n          1 7M8      -0.292000
     31 C23         -1.5340    -0.2780     2.8800 c3         1 7M8      -0.044800
     32 H1           4.0840     3.8700     0.2110 ha         1 7M8       0.124000
     33 H2           1.6480     3.6870     0.5670 ha         1 7M8       0.141000
     34 H3           6.5130    -1.5920     0.7440 hc         1 7M8       0.060200
     35 H4           6.4990     0.1650     0.8630 hc         1 7M8       0.060200
     36 H5           8.5890    -1.4880    -0.6580 h1         1 7M8       0.015700
     37 H6           8.5730     0.2860    -0.5420 h1         1 7M8       0.015700
     38 H7           1.9170    -2.9040    -0.9410 ha         1 7M8       0.141000
     39 H8           4.3370    -2.7360    -1.3020 ha         1 7M8       0.123000
     40 H9          -4.2700    -0.5640     2.8410 ha         1 7M8       0.124000
     41 H10         -2.4310     0.2620    -1.7410 ha         1 7M8       0.130000
     42 H11         -8.0230    -0.1900     1.3930 h1         1 7M8       0.051367
     43 H12         -7.1550    -1.6180     2.0310 h1         1 7M8       0.051367
     44 H13         -6.7010     0.0260     2.5710 h1         1 7M8       0.051367
     45 H14          6.2590     0.2910    -1.6750 hc         1 7M8       0.052200
     46 H15          6.2570    -1.4470    -1.7350 hc         1 7M8       0.052200
     47 H16          9.9450    -0.6970     1.0430 ho         1 7M8       0.445000
     48 H17          5.4100     1.9150    -0.4420 ha         1 7M8       0.120000
     49 H18         -6.0780    -0.2030    -3.3780 h1         1 7M8       0.051367
     50 H19         -5.2500     1.3250    -2.9530 h1         1 7M8       0.051367
     51 H20         -4.2960    -0.1460    -3.3040 h1         1 7M8       0.051367
     52 H21         -0.9560     0.6390     3.0450 hc         1 7M8       0.046033
     53 H22         -2.0830    -0.4900     3.8040 hc         1 7M8       0.046033
     54 H23         -0.8250    -1.1000     2.7240 hc         1 7M8       0.046033
     55 C21         -7.0480    -0.5720     1.7190 c3         1 7M8       0.105300
@<TRIPOS>BOND
     1     1     2 ar  
     2     1    26 ar  
     3     1    32 1   
     4     2     3 ar  
     5     2    33 1   
     6     3     4 ar  
     7     3    18 1   
     8     4     7 ar  
     9     4    25 ar  
    10     5     6 1   
    11     5    23 1   
    12     5    34 1   
    13     5    35 1   
    14     6    24 1   
    15     6    36 1   
    16     6    37 1   
    17     7     8 ar  
    18     7    10 1   
    19     8     9 ar  
    20     8    38 1   
    21     9    22 ar  
    22     9    39 1   
    23    10    20 1   
    24    10    21 2   
    25    11    12 ar  
    26    11    16 ar  
    27    11    20 1   
    28    12    13 ar  
    29    12    31 1   
    30    13    14 ar  
    31    13    40 1   
    32    14    15 ar  
    33    14    30 1   
    34    15    16 ar  
    35    15    27 1   
    36    16    41 1   
    37    17    27 1   
    38    17    29 2   
    39    17    30 1   
    40    18    19 2   
    41    18    20 1   
    42    22    23 1   
    43    22    25 ar  
    44    23    45 1   
    45    23    46 1   
    46    24    47 1   
    47    25    26 ar  
    48    26    48 1   
    49    27    28 1   
    50    28    49 1   
    51    28    50 1   
    52    28    51 1   
    53    30    55 1   
    54    31    52 1   
    55    31    53 1   
    56    31    54 1   
    57    42    55 1   
    58    43    55 1   
    59    44    55 1   
@<TRIPOS>SUBSTRUCTURE
     1 7M8         1 TEMP              0 ****  ****    0 ROOT
