@<TRIPOS>MOLECULE
7M8
   55    59     1     0     0
SMALL
abcg2


@<TRIPOS>ATOM
      1 C1           3.4930     2.8870     0.0570 ca         1 7M8      -0.132000
      2 C2           2.1090     2.7600     0.2330 ca         1 7M8      -0.019000
      3 C3           1.5000     1.5390     0.0580 ca         1 7M8      -0.164600
      4 C4           2.2610     0.4080    -0.3050 ca         1 7M8       0.025000
      5 C8           6.6440    -0.7180     0.2650 c3         1 7M8      -0.081400
      6 C9           8.1430    -0.5980     0.0770 c3         1 7M8       0.163600
      7 C10          1.6340    -0.8430    -0.4750 ca         1 7M8      -0.167600
      8 C11          2.3820    -1.9340    -0.8480 ca         1 7M8      -0.014000
      9 C12          3.7600    -1.8120    -1.0560 ca         1 7M8      -0.133000
     10 C13          0.1920    -0.9920    -0.2490 c          1 7M8       0.592600
     11 C14         -1.9150     0.0250     0.3240 ca         1 7M8       0.036600
     12 C15         -2.3740    -0.2030     1.6220 ca         1 7M8      -0.046300
     13 C16         -3.7480    -0.3390     1.8370 ca         1 7M8      -0.109000
     14 C17         -4.5990    -0.2470     0.7540 ca         1 7M8       0.015600
     15 C18         -4.1150    -0.0240    -0.5360 ca         1 7M8       0.002600
     16 C19         -2.7660     0.1200    -0.7730 ca         1 7M8      -0.081000
     17 C20         -6.3570    -0.1860    -0.6550 c          1 7M8       0.598000
     18 C24          0.0450     1.4240     0.2500 c          1 7M8       0.592600
     19 O3          -0.6610     2.3660     0.5340 o          1 7M8      -0.507000
     20 N           -0.5080     0.1580     0.0990 n          1 7M8      -0.299600
     21 O2          -0.3900    -2.0510    -0.3490 o          1 7M8      -0.507000
     22 C6           4.4150    -0.6140    -0.8870 ca         1 7M8      -0.018300
     23 C7           5.9040    -0.5510    -1.0660 c3         1 7M8      -0.042100
     24 O            8.7770    -0.7840     1.3230 oh         1 7M8      -0.659000
     25 C5           3.6600     0.5310    -0.4990 ca         1 7M8      -0.054000
     26 C            4.2490     1.8010    -0.3000 ca         1 7M8      -0.058000
     27 N1          -5.2030     0.0040    -1.3790 n          1 7M8      -0.290000
     28 C22         -5.1470     0.2010    -2.8040 c3         1 7M8       0.106300
     29 O1          -7.4950    -0.2140    -1.0870 o          1 7M8      -0.566000
     30 N2          -5.9680    -0.3410     0.6570 n          1 7M8      -0.292000
     31 C23         -1.4170    -0.2980     2.7750 c3         1 7M8      -0.044800
     32 H1           3.9630     3.8500     0.2030 ha         1 7M8       0.124000
     33 H2           1.5230     3.6260     0.5090 ha         1 7M8       0.141000
     34 H3           6.4020    -1.6960     0.6890 hc         1 7M8       0.060200
     35 H4           6.3040     0.0330     0.9830 hc         1 7M8       0.060200
     36 H5           8.4760    -1.3420    -0.6590 h1         1 7M8       0.015700
     37 H6           8.3730     0.3890    -0.3470 h1         1 7M8       0.015700
     38 H7           1.9080    -2.8970    -0.9850 ha         1 7M8       0.141000
     39 H8           4.3220    -2.6880    -1.3570 ha         1 7M8       0.123000
     40 H9          -4.1250    -0.5180     2.8350 ha         1 7M8       0.124000
     41 H10         -2.3730     0.2990    -1.7650 ha         1 7M8       0.130000
     42 H11         -7.8880    -0.5670     1.3910 h1         1 7M8       0.051367
     43 H12         -6.6610    -1.5070     2.2480 h1         1 7M8       0.051367
     44 H13         -6.7710     0.2460     2.4950 h1         1 7M8       0.051367
     45 H14          6.2000     0.3870    -1.5410 hc         1 7M8       0.052200
     46 H15          6.2110    -1.3460    -1.7480 hc         1 7M8       0.052200
     47 H16          9.7260    -0.7070     1.1900 ho         1 7M8       0.445000
     48 H17          5.3140     1.9280    -0.4310 ha         1 7M8       0.120000
     49 H18         -6.1470     0.1030    -3.2150 h1         1 7M8       0.051367
     50 H19         -4.7640     1.1930    -3.0440 h1         1 7M8       0.051367
     51 H20         -4.5050    -0.5470    -3.2680 h1         1 7M8       0.051367
     52 H21         -0.9010     0.6480     2.9500 hc         1 7M8       0.046033
     53 H22         -1.9440    -0.5550     3.6920 hc         1 7M8       0.046033
     54 H23         -0.6550    -1.0610     2.6120 hc         1 7M8       0.046033
     55 C21         -6.8670    -0.5550     1.7620 c3         1 7M8       0.105300
@<TRIPOS>BOND
     1     1     2 ar  
     2     1    26 ar  
     3     1    32 1   
     4     2     3 ar  
     5     2    33 1   
     6     3     4 ar  
     7     3    18 1   
     8     4     7 ar  
     9     4    25 ar  
    10     5     6 1   
    11     5    23 1   
    12     5    34 1   
    13     5    35 1   
    14     6    24 1   
    15     6    36 1   
    16     6    37 1   
    17     7     8 ar  
    18     7    10 1   
    19     8     9 ar  
    20     8    38 1   
    21     9    22 ar  
    22     9    39 1   
    23    10    20 1   
    24    10    21 2   
    25    11    12 ar  
    26    11    16 ar  
    27    11    20 1   
    28    12    13 ar  
    29    12    31 1   
    30    13    14 ar  
    31    13    40 1   
    32    14    15 ar  
    33    14    30 1   
    34    15    16 ar  
    35    15    27 1   
    36    16    41 1   
    37    17    27 1   
    38    17    29 2   
    39    17    30 1   
    40    18    19 2   
    41    18    20 1   
    42    22    23 1   
    43    22    25 ar  
    44    23    45 1   
    45    23    46 1   
    46    24    47 1   
    47    25    26 ar  
    48    26    48 1   
    49    27    28 1   
    50    28    49 1   
    51    28    50 1   
    52    28    51 1   
    53    30    55 1   
    54    31    52 1   
    55    31    53 1   
    56    31    54 1   
    57    42    55 1   
    58    43    55 1   
    59    44    55 1   
@<TRIPOS>SUBSTRUCTURE
     1 7M8         1 TEMP              0 ****  ****    0 ROOT
