@<TRIPOS>MOLECULE
7M9
   38    42     1     0     0
SMALL
No Charge or Current Charge


@<TRIPOS>ATOM
      1 N01         -2.2680     1.2510     0.5180 na         1 7M9       0.155100
      2 C02         -0.9100     1.3330     0.4180 cc         1 7M9      -0.210000
      3 C03         -0.5600     2.5760     0.8850 cd         1 7M9      -0.195000
      4 C04         -1.7630     3.2510     1.2300 cd         1 7M9      -0.233000
      5 C05         -2.8430     2.4250     1.0000 cc         1 7M9      -0.207100
      6 C06         -2.9000     0.0660     0.1780 ca         1 7M9      -0.059000
      7 C07         -4.3010    -0.0990     0.2660 ca         1 7M9      -0.123000
      8 C08         -4.8920    -1.3200    -0.0940 ca         1 7M9      -0.085000
      9 C09         -4.0910    -2.3790    -0.5450 ca         1 7M9      -0.118000
     10 C10         -2.6980    -2.2180    -0.6340 ca         1 7M9      -0.058000
     11 C11         -2.0790    -1.0040    -0.2750 ca         1 7M9       0.233000
     12 N12         -0.6660    -0.9440    -0.4050 nd         1 7M9      -0.652000
     13 C13          1.3270     0.3810    -0.2650 ca         1 7M9      -0.249500
     14 C14          3.6530    -0.4210    -0.1170 ca         1 7M9      -0.073000
     15 C15          1.7890     1.4500    -1.0760 ca         1 7M9       0.177100
     16 C16         -0.1180     0.2170    -0.0250 cc         1 7M9       0.465500
     17 O17          0.9260     2.3410    -1.6440 oh         1 7M9      -0.533100
     18 C18          4.2210    -2.4030     1.1830 ca         1 7M9      -0.119000
     19 C19          2.8760    -2.5440     1.5500 ca         1 7M9      -0.097000
     20 C20          1.9160    -1.6320     1.0790 ca         1 7M9      -0.101000
     21 C21          4.6090    -1.3400     0.3570 ca         1 7M9      -0.087000
     22 C22          2.2810    -0.5660     0.2180 ca         1 7M9       0.033000
     23 C23          4.0780     0.6490    -0.9190 ca         1 7M9      -0.056000
     24 C24          3.1470     1.5780    -1.3930 ca         1 7M9      -0.137000
     25 H1           0.4510     2.9700     1.0000 ha         1 7M9       0.216000
     26 H2          -1.8230     4.2620     1.6330 ha         1 7M9       0.207000
     27 H3          -3.9060     2.5700     1.1470 h4         1 7M9       0.222000
     28 H4          -4.9420     0.7080     0.6110 ha         1 7M9       0.123000
     29 H5          -5.9710    -1.4440    -0.0250 ha         1 7M9       0.120000
     30 H6          -4.5480    -3.3250    -0.8260 ha         1 7M9       0.123000
     31 H7          -2.0860    -3.0440    -0.9840 ha         1 7M9       0.137000
     32 H8           0.0570     2.2520    -1.1980 ho         1 7M9       0.477000
     33 H9           4.9640    -3.1090     1.5490 ha         1 7M9       0.113000
     34 H10          2.5750    -3.3570     2.2060 ha         1 7M9       0.112000
     35 H11          0.8920    -1.7630     1.4140 ha         1 7M9       0.121000
     36 H12          5.6580    -1.2270     0.0890 ha         1 7M9       0.111000
     37 H13          5.1290     0.7610    -1.1780 ha         1 7M9       0.117000
     38 H14          3.4780     2.3960    -2.0270 ha         1 7M9       0.132000
@<TRIPOS>BOND
     1     1     2 1   
     2     1     5 1   
     3     1     6 1   
     4     2     3 2   
     5     2    16 1   
     6     3     4 1   
     7     3    25 1   
     8     4     5 2   
     9     4    26 1   
    10     5    27 1   
    11     6     7 ar  
    12     6    11 ar  
    13     7     8 ar  
    14     7    28 1   
    15     8     9 ar  
    16     8    29 1   
    17     9    10 ar  
    18     9    30 1   
    19    10    11 ar  
    20    10    31 1   
    21    11    12 1   
    22    12    16 2   
    23    13    15 ar  
    24    13    16 1   
    25    13    22 ar  
    26    14    21 ar  
    27    14    22 ar  
    28    14    23 ar  
    29    15    17 1   
    30    15    24 ar  
    31    17    32 1   
    32    18    19 ar  
    33    18    21 ar  
    34    18    33 1   
    35    19    20 ar  
    36    19    34 1   
    37    20    22 ar  
    38    20    35 1   
    39    21    36 1   
    40    23    24 ar  
    41    23    37 1   
    42    24    38 1   
@<TRIPOS>SUBSTRUCTURE
     1 7M9         1 TEMP              0 ****  ****    0 ROOT
