@<TRIPOS>MOLECULE
7M9
   38    42     1     0     0
SMALL
abcg2


@<TRIPOS>ATOM
      1 N01         -2.1960     1.1270     0.6630 na         1 7M9       0.155100
      2 C02         -0.8300     1.2490     0.4600 cc         1 7M9      -0.210000
      3 C03         -0.4210     2.4390     1.0360 cd         1 7M9      -0.195000
      4 C04         -1.5630     3.0340     1.5930 cd         1 7M9      -0.233000
      5 C05         -2.6410     2.2080     1.3490 cc         1 7M9      -0.207100
      6 C06         -2.8790     0.0110     0.2050 ca         1 7M9      -0.059000
      7 C07         -4.2500    -0.1550     0.3880 ca         1 7M9      -0.123000
      8 C08         -4.8660    -1.2960    -0.0860 ca         1 7M9      -0.085000
      9 C09         -4.1270    -2.2800    -0.7460 ca         1 7M9      -0.118000
     10 C10         -2.7710    -2.1130    -0.9270 ca         1 7M9      -0.058000
     11 C11         -2.1170    -0.9660    -0.4590 ca         1 7M9       0.233000
     12 N12         -0.7640    -0.8470    -0.6800 nd         1 7M9      -0.652000
     13 C13          1.2990     0.3550    -0.4870 ca         1 7M9      -0.249500
     14 C14          3.6140    -0.3590    -0.0920 ca         1 7M9      -0.073000
     15 C15          1.7570     1.3130    -1.3660 ca         1 7M9       0.177100
     16 C16         -0.1570     0.2100    -0.2460 cc         1 7M9       0.465500
     17 O17          0.9600     2.1580    -2.0450 oh         1 7M9      -0.533100
     18 C18          4.1230    -2.1450     1.4560 ca         1 7M9      -0.119000
     19 C19          2.7490    -2.2770     1.7370 ca         1 7M9      -0.097000
     20 C20          1.8250    -1.4790     1.1150 ca         1 7M9      -0.101000
     21 C21          4.5430    -1.2010     0.5590 ca         1 7M9      -0.087000
     22 C22          2.2270    -0.5000     0.1740 ca         1 7M9       0.033000
     23 C23          4.0380     0.6320    -1.0090 ca         1 7M9      -0.056000
     24 C24          3.1410     1.4480    -1.6270 ca         1 7M9      -0.137000
     25 H1           0.5890     2.8140     1.0620 ha         1 7M9       0.216000
     26 H2          -1.6090     3.9710     2.1250 ha         1 7M9       0.207000
     27 H3          -3.6750     2.3240     1.6260 h4         1 7M9       0.222000
     28 H4          -4.8340     0.6000     0.8980 ha         1 7M9       0.123000
     29 H5          -5.9310    -1.4230     0.0580 ha         1 7M9       0.120000
     30 H6          -4.6170    -3.1700    -1.1150 ha         1 7M9       0.123000
     31 H7          -2.1810    -2.8640    -1.4380 ha         1 7M9       0.137000
     32 H8           0.0290     2.0340    -1.8230 ho         1 7M9       0.477000
     33 H9           4.8390    -2.7880     1.9520 ha         1 7M9       0.113000
     34 H10          2.4180    -3.0180     2.4530 ha         1 7M9       0.112000
     35 H11          0.7770    -1.6050     1.3480 ha         1 7M9       0.121000
     36 H12          5.5970    -1.0840     0.3370 ha         1 7M9       0.111000
     37 H13          5.0950     0.7380    -1.2180 ha         1 7M9       0.117000
     38 H14          3.4700     2.2040    -2.3290 ha         1 7M9       0.132000
@<TRIPOS>BOND
     1     1     2 1   
     2     1     5 1   
     3     1     6 1   
     4     2     3 2   
     5     2    16 1   
     6     3     4 1   
     7     3    25 1   
     8     4     5 2   
     9     4    26 1   
    10     5    27 1   
    11     6     7 ar  
    12     6    11 ar  
    13     7     8 ar  
    14     7    28 1   
    15     8     9 ar  
    16     8    29 1   
    17     9    10 ar  
    18     9    30 1   
    19    10    11 ar  
    20    10    31 1   
    21    11    12 1   
    22    12    16 2   
    23    13    15 ar  
    24    13    16 1   
    25    13    22 ar  
    26    14    21 ar  
    27    14    22 ar  
    28    14    23 ar  
    29    15    17 1   
    30    15    24 ar  
    31    17    32 1   
    32    18    19 ar  
    33    18    21 ar  
    34    18    33 1   
    35    19    20 ar  
    36    19    34 1   
    37    20    22 ar  
    38    20    35 1   
    39    21    36 1   
    40    23    24 ar  
    41    23    37 1   
    42    24    38 1   
@<TRIPOS>SUBSTRUCTURE
     1 7M9         1 TEMP              0 ****  ****    0 ROOT
