@<TRIPOS>MOLECULE
7MA
   58    60     1     0     0
SMALL
abcg2


@<TRIPOS>ATOM
      1 C10         -4.4990     0.6860     1.0460 ca         1 7MA      -0.053000
      2 C13         -0.3850    -1.0000    -0.6400 c3         1 7MA       0.155800
      3 C15          1.1080     0.9820    -0.4130 ca         1 7MA       0.133000
      4 C20          1.9250     1.3750    -1.4760 ca         1 7MA      -0.031000
      5 C22          1.2100     5.8730    -0.1660 c3         1 7MA       0.158900
      6 C26          3.3870    -1.1460     0.2440 ca         1 7MA      -0.272500
      7 C28          5.6590    -0.3800     0.4180 ca         1 7MA      -0.133000
      8 C31          3.6650    -1.8370    -0.9440 ca         1 7MA       0.023700
      9 C30          4.9740    -1.7730    -1.4150 ca         1 7MA      -0.139000
     10 C29          5.9610    -1.0590    -0.7510 ca         1 7MA      -0.055000
     11 C27          4.3670    -0.4250     0.9160 ca         1 7MA      -0.014000
     12 S23          1.7610    -1.1550     0.9660 sy         1 7MA       1.186600
     13 O24          1.2500    -2.5150     1.0530 o          1 7MA      -0.533500
     14 O25          1.8380    -0.3620     2.1810 o          1 7MA      -0.533500
     15 N14          0.8470    -0.3940    -0.1870 nh         1 7MA      -0.775300
     16 C16          0.5720     1.9730     0.3900 ca         1 7MA       0.412900
     17 N17          0.7960     3.2680     0.1910 nb         1 7MA      -0.755000
     18 C19          2.1650     2.7110    -1.6910 ca         1 7MA      -0.193000
     19 C18          1.5680     3.6280    -0.8150 ca         1 7MA       0.597300
     20 O21          1.8100     4.9180    -1.0320 os         1 7MA      -0.458300
     21 C11         -1.4690    -1.0310     0.4360 c          1 7MA       0.585100
     22 O12         -1.2670    -0.5250     1.5300 o          1 7MA      -0.604100
     23 N03         -2.6280    -1.6310     0.1050 n          1 7MA      -0.402800
     24 C02         -2.8790    -2.2640    -1.1820 c3         1 7MA       0.100000
     25 C01         -2.6060    -3.7600    -1.1670 c3         1 7MA      -0.118100
     26 C04         -3.7050    -1.7170     1.0800 c3         1 7MA       0.146300
     27 C05         -4.7580    -0.6680     0.8480 ca         1 7MA      -0.162300
     28 C09         -5.5030     1.6070     0.8000 ca         1 7MA      -0.166000
     29 C08         -6.7360     1.1430     0.3610 ca         1 7MA       0.337900
     30 N07         -7.0000    -0.1420     0.1670 nb         1 7MA      -0.668000
     31 C06         -6.0280    -1.0160     0.4060 ca         1 7MA       0.337900
     32 H1          -3.5280     1.0150     1.3950 ha         1 7MA       0.136000
     33 H2          -0.7230    -0.4120    -1.4940 h1         1 7MA       0.078200
     34 H3          -0.1950    -2.0040    -1.0220 h1         1 7MA       0.078200
     35 H4           2.3670     0.6300    -2.1260 ha         1 7MA       0.128000
     36 H5           1.5180     5.7300     0.8710 h1         1 7MA       0.049367
     37 H6           1.5530     6.8430    -0.5130 h1         1 7MA       0.049367
     38 H7           0.1210     5.8350    -0.2170 h1         1 7MA       0.049367
     39 H8           6.4180     0.1840     0.9410 ha         1 7MA       0.121000
     40 H9           1.8910    -1.9470    -2.1610 hc         1 7MA       0.057700
     41 H10          3.1340    -3.1170    -2.5670 hc         1 7MA       0.057700
     42 H11          2.1370    -3.3550    -1.1370 hc         1 7MA       0.057700
     43 H12          5.2210    -2.2950    -2.3320 ha         1 7MA       0.113000
     44 H13          6.9660    -1.0350    -1.1520 ha         1 7MA       0.116000
     45 H14          4.1270     0.1070     1.8250 ha         1 7MA       0.147000
     46 H15         -0.0650     1.7120     1.2260 h4         1 7MA       0.054100
     47 H16          2.7900     3.0490    -2.5060 ha         1 7MA       0.140000
     48 H17         -3.9230    -2.0770    -1.4450 h1         1 7MA       0.049700
     49 H18         -2.2950    -1.7770    -1.9610 h1         1 7MA       0.049700
     50 H19         -3.2260    -4.2710    -0.4300 hc         1 7MA       0.046367
     51 H20         -2.8280    -4.1910    -2.1440 hc         1 7MA       0.046367
     52 H21         -1.5630    -3.9740    -0.9330 hc         1 7MA       0.046367
     53 H22         -4.1530    -2.7110     1.0170 h1         1 7MA       0.071200
     54 H23         -3.2890    -1.6240     2.0820 h1         1 7MA       0.071200
     55 H24         -5.3390     2.6660     0.9450 ha         1 7MA       0.126000
     56 H25         -7.5410     1.8420     0.1580 h4         1 7MA       0.019100
     57 H26         -6.2690    -2.0620     0.2400 h4         1 7MA       0.014100
     58 C32          2.6500    -2.6070    -1.7370 c3         1 7MA      -0.075800
@<TRIPOS>BOND
     1     1    27 ar  
     2     1    28 ar  
     3     1    32 1   
     4     2    15 1   
     5     2    21 1   
     6     2    33 1   
     7     2    34 1   
     8     3     4 ar  
     9     3    15 1   
    10     3    16 ar  
    11     4    18 ar  
    12     4    35 1   
    13     5    20 1   
    14     5    36 1   
    15     5    37 1   
    16     5    38 1   
    17     6     8 ar  
    18     6    11 ar  
    19     6    12 1   
    20     7    10 ar  
    21     7    11 ar  
    22     7    39 1   
    23     8     9 ar  
    24     8    58 1   
    25     9    10 ar  
    26     9    43 1   
    27    10    44 1   
    28    11    45 1   
    29    12    13 2   
    30    12    14 2   
    31    12    15 1   
    32    16    17 ar  
    33    16    46 1   
    34    17    19 ar  
    35    18    19 ar  
    36    18    47 1   
    37    19    20 1   
    38    21    22 2   
    39    21    23 1   
    40    23    24 1   
    41    23    26 1   
    42    24    25 1   
    43    24    48 1   
    44    24    49 1   
    45    25    50 1   
    46    25    51 1   
    47    25    52 1   
    48    26    27 1   
    49    26    53 1   
    50    26    54 1   
    51    27    31 ar  
    52    28    29 ar  
    53    28    55 1   
    54    29    30 ar  
    55    29    56 1   
    56    30    31 ar  
    57    31    57 1   
    58    40    58 1   
    59    41    58 1   
    60    42    58 1   
@<TRIPOS>SUBSTRUCTURE
     1 7MA         1 TEMP              0 ****  ****    0 ROOT
