@<TRIPOS>MOLECULE
7MA
   58    60     1     0     0
SMALL
No Charge or Current Charge


@<TRIPOS>ATOM
      1 C10         -5.4050     0.0510     1.2630 ca         1 7MA      -0.053000
      2 C13         -0.7370    -0.3610    -0.5130 c3         1 7MA       0.155800
      3 C15          1.2160     1.2950    -0.3690 ca         1 7MA       0.133000
      4 C20          1.2700     1.6120    -1.7390 ca         1 7MA      -0.031000
      5 C22          3.7410     5.6950    -0.7090 c3         1 7MA       0.158900
      6 C26          3.0570    -0.8990     0.5300 ca         1 7MA      -0.272500
      7 C28          5.3710    -0.1590     0.8350 ca         1 7MA      -0.133000
      8 C31          3.4200    -1.5010    -0.7080 ca         1 7MA       0.023700
      9 C30          4.7580    -1.4170    -1.1450 ca         1 7MA      -0.139000
     10 C29          5.7290    -0.7510    -0.3820 ca         1 7MA      -0.055000
     11 C27          4.0460    -0.2320     1.2900 ca         1 7MA      -0.014000
     12 S23          1.3610    -0.9260     1.1830 sy         1 7MA       1.186600
     13 O24          0.7920    -2.2670     1.0130 o          1 7MA      -0.533500
     14 O25          1.3250    -0.2440     2.4810 o          1 7MA      -0.533500
     15 N14          0.5770     0.0910     0.0500 nh         1 7MA      -0.775300
     16 C16          1.8280     2.2220     0.5250 ca         1 7MA       0.412900
     17 N17          2.4500     3.3650     0.1350 nb         1 7MA      -0.755000
     18 C19          1.9160     2.7930    -2.1430 ca         1 7MA      -0.193000
     19 C18          2.4930     3.6360    -1.1840 ca         1 7MA       0.597300
     20 O21          3.1150     4.7790    -1.6290 os         1 7MA      -0.458300
     21 C11         -1.8980    -0.6900     0.4910 c          1 7MA       0.585100
     22 O12         -1.9620    -0.1400     1.5870 o          1 7MA      -0.604100
     23 N03         -2.8800    -1.6480     0.1190 n          1 7MA      -0.402800
     24 C02         -2.9750    -2.2030    -1.2530 c3         1 7MA       0.100000
     25 C01         -2.2760    -3.5670    -1.3940 c3         1 7MA      -0.118100
     26 C04         -3.9540    -2.0360     1.0650 c3         1 7MA       0.146300
     27 C05         -5.2550    -1.2810     0.8360 ca         1 7MA      -0.162300
     28 C09         -6.6300     0.6920     1.0220 ca         1 7MA      -0.166000
     29 C08         -7.6570    -0.0110     0.3690 ca         1 7MA       0.337900
     30 N07         -7.5220    -1.2930    -0.0430 nb         1 7MA      -0.668000
     31 C06         -6.3390    -1.9090     0.1910 ca         1 7MA       0.337900
     32 H1          -4.5960     0.5740     1.7680 ha         1 7MA       0.136000
     33 H2          -1.1420     0.4010    -1.1910 h1         1 7MA       0.078200
     34 H3          -0.5560    -1.2530    -1.1210 h1         1 7MA       0.078200
     35 H4           0.8340     0.9480    -2.4810 ha         1 7MA       0.128000
     36 H5           4.5420     5.1990    -0.1450 h1         1 7MA       0.049367
     37 H6           4.1820     6.5400    -1.2520 h1         1 7MA       0.049367
     38 H7           3.0090     6.0960     0.0050 h1         1 7MA       0.049367
     39 H8           6.1220     0.3570     1.4290 ha         1 7MA       0.121000
     40 H9           1.6020    -1.5810    -1.9110 hc         1 7MA       0.057700
     41 H10          2.8990    -2.5910    -2.5270 hc         1 7MA       0.057700
     42 H11          2.0060    -3.1160    -1.1070 hc         1 7MA       0.057700
     43 H12          5.0530    -1.8690    -2.0890 ha         1 7MA       0.113000
     44 H13          6.7560    -0.6950    -0.7360 ha         1 7MA       0.116000
     45 H14          3.7980     0.2370     2.2410 ha         1 7MA       0.147000
     46 H15          1.8060     2.0530     1.5990 h4         1 7MA       0.054100
     47 H16          1.9780     3.0560    -3.1940 ha         1 7MA       0.140000
     48 H17         -4.0350    -2.3290    -1.5110 h1         1 7MA       0.049700
     49 H18         -2.5640    -1.4950    -1.9830 h1         1 7MA       0.049700
     50 H19         -2.7310    -4.3060    -0.7240 hc         1 7MA       0.046367
     51 H20         -2.3680    -3.9360    -2.4230 hc         1 7MA       0.046367
     52 H21         -1.2110    -3.4910    -1.1490 hc         1 7MA       0.046367
     53 H22         -4.1380    -3.1140     0.9640 h1         1 7MA       0.071200
     54 H23         -3.6220    -1.8790     2.1000 h1         1 7MA       0.071200
     55 H24         -6.7900     1.7210     1.3330 ha         1 7MA       0.126000
     56 H25         -8.6160     0.4650     0.1710 h4         1 7MA       0.019100
     57 H26         -6.2600    -2.9400    -0.1530 h4         1 7MA       0.014100
     58 C32          2.4250    -2.2340    -1.6050 c3         1 7MA      -0.075800
@<TRIPOS>BOND
     1     1    27 ar  
     2     1    28 ar  
     3     1    32 1   
     4     2    15 1   
     5     2    21 1   
     6     2    33 1   
     7     2    34 1   
     8     3     4 ar  
     9     3    15 1   
    10     3    16 ar  
    11     4    18 ar  
    12     4    35 1   
    13     5    20 1   
    14     5    36 1   
    15     5    37 1   
    16     5    38 1   
    17     6     8 ar  
    18     6    11 ar  
    19     6    12 1   
    20     7    10 ar  
    21     7    11 ar  
    22     7    39 1   
    23     8     9 ar  
    24     8    58 1   
    25     9    10 ar  
    26     9    43 1   
    27    10    44 1   
    28    11    45 1   
    29    12    13 2   
    30    12    14 2   
    31    12    15 1   
    32    16    17 ar  
    33    16    46 1   
    34    17    19 ar  
    35    18    19 ar  
    36    18    47 1   
    37    19    20 1   
    38    21    22 2   
    39    21    23 1   
    40    23    24 1   
    41    23    26 1   
    42    24    25 1   
    43    24    48 1   
    44    24    49 1   
    45    25    50 1   
    46    25    51 1   
    47    25    52 1   
    48    26    27 1   
    49    26    53 1   
    50    26    54 1   
    51    27    31 ar  
    52    28    29 ar  
    53    28    55 1   
    54    29    30 ar  
    55    29    56 1   
    56    30    31 ar  
    57    31    57 1   
    58    40    58 1   
    59    41    58 1   
    60    42    58 1   
@<TRIPOS>SUBSTRUCTURE
     1 7MA         1 TEMP              0 ****  ****    0 ROOT
