@<TRIPOS>MOLECULE
7MB
   33    36     1     0     0
SMALL
No Charge or Current Charge


@<TRIPOS>ATOM
      1 O1          -1.2700     4.1360    -0.0780 o          1 7MB      -0.535000
      2 C1           3.2310    -0.9420    -0.8020 c          1 7MB       0.615000
      3 C2           2.4270     1.2220    -0.3150 c5         1 7MB       0.087700
      4 C3           2.2960     0.3100     0.9720 c5         1 7MB       0.335400
      5 C4           0.7710     0.1850     1.2370 c5         1 7MB      -0.126400
      6 C5           0.1550     0.2320    -0.1910 c5         1 7MB       0.074300
      7 C6           0.9660     1.4030    -0.8570 c5         1 7MB       0.099700
      8 C7          -0.8590     2.9940    -0.2030 c          1 7MB       0.603600
      9 C8          -1.7190     1.8020    -0.2030 cc         1 7MB      -0.245600
     10 C9          -3.0880     1.7430    -0.1420 cd         1 7MB      -0.093000
     11 C10         -3.4670     0.3800    -0.1260 cd         1 7MB      -0.151000
     12 C11         -2.3340    -0.3900    -0.1650 cc         1 7MB      -0.097900
     13 N            2.7900    -0.9830     0.5040 n          1 7MB      -0.452800
     14 C            2.8570    -2.2280     1.2970 c3         1 7MB       0.100300
     15 N1           3.0640     0.3140    -1.2860 ns         1 7MB      -0.513900
     16 N2           0.5000     2.7290    -0.3330 ns         1 7MB      -0.510900
     17 N3          -1.2670     0.5040    -0.2090 na         1 7MB       0.056000
     18 Br          -2.2020    -2.2720    -0.1320 br         1 7MB      -0.036100
     19 H1           2.9780     2.1590    -0.1590 h1         1 7MB       0.086700
     20 H3           0.5010    -0.7280     1.7770 hc         1 7MB       0.080700
     21 H4           0.4170     1.0230     1.8480 hc         1 7MB       0.080700
     22 H5           0.3500    -0.7080    -0.7250 h1         1 7MB       0.103700
     23 H6           0.9100     1.3720    -1.9540 h1         1 7MB       0.078700
     24 H7          -3.7630     2.5950    -0.1080 ha         1 7MB       0.153000
     25 H8          -4.4850     0.0040    -0.0780 ha         1 7MB       0.151000
     26 H9           2.5670    -2.0320     2.3370 h1         1 7MB       0.045700
     27 H10          2.1740    -2.9740     0.8700 h1         1 7MB       0.045700
     28 H11          3.8800    -2.6250     1.2810 h1         1 7MB       0.045700
     29 H12          3.3590     0.5300    -2.2310 hn         1 7MB       0.340500
     30 H13          1.1010     3.5430    -0.2920 hn         1 7MB       0.320500
     31 O            3.7020    -1.8710    -1.4310 o          1 7MB      -0.563000
     32 O2           3.0170     0.7720     2.0950 oh         1 7MB      -0.642000
     33 H2           3.9510     0.5260     1.9240 ho         1 7MB       0.462000
@<TRIPOS>BOND
     1     1     8 2   
     2     2    13 1   
     3     2    15 1   
     4     2    31 2   
     5     3     4 1   
     6     3     7 1   
     7     3    15 1   
     8     3    19 1   
     9     4     5 1   
    10     4    13 1   
    11     4    32 1   
    12     5     6 1   
    13     5    20 1   
    14     5    21 1   
    15     6     7 1   
    16     6    17 1   
    17     6    22 1   
    18     7    16 1   
    19     7    23 1   
    20     8     9 1   
    21     8    16 1   
    22     9    10 2   
    23     9    17 1   
    24    10    11 1   
    25    10    24 1   
    26    11    12 2   
    27    11    25 1   
    28    12    17 1   
    29    12    18 1   
    30    13    14 1   
    31    14    26 1   
    32    14    27 1   
    33    14    28 1   
    34    15    29 1   
    35    16    30 1   
    36    32    33 1   
@<TRIPOS>SUBSTRUCTURE
     1 7MB         1 TEMP              0 ****  ****    0 ROOT
