@<TRIPOS>MOLECULE
7MB
   33    36     1     0     0
SMALL
bcc


@<TRIPOS>ATOM
      1 O1          -1.1460     4.1310     0.1280 o          1 7MB      -0.610500
      2 C1           3.3690    -1.0090    -0.8940 c          1 7MB       0.824500
      3 C2           2.3430     1.0520    -0.5270 c5         1 7MB       0.087700
      4 C3           2.2710     0.2090     0.7840 c5         1 7MB       0.312200
      5 C4           0.7780     0.0620     1.1050 c5         1 7MB      -0.126400
      6 C5           0.1090     0.2390    -0.2560 c5         1 7MB       0.045000
      7 C6           0.8950     1.3710    -0.9150 c5         1 7MB       0.099700
      8 C7          -0.7880     2.9840    -0.0960 c          1 7MB       0.746100
      9 C8          -1.7270     1.8650    -0.0720 cc         1 7MB      -0.194900
     10 C9          -3.0940     1.8530     0.0820 cd         1 7MB      -0.111000
     11 C10         -3.5060     0.5080     0.0690 cd         1 7MB      -0.169000
     12 C11         -2.3660    -0.2480    -0.0890 cc         1 7MB      -0.047200
     13 N            2.8540    -1.0450     0.3670 n          1 7MB      -0.519800
     14 C            3.0830    -2.1280     1.2860 c3         1 7MB       0.100300
     15 N1           2.9760     0.1660    -1.4630 ns         1 7MB      -0.580900
     16 N2           0.4990     2.6430    -0.3450 ns         1 7MB      -0.577900
     17 N3          -1.2930     0.5710    -0.1880 na         1 7MB      -0.016100
     18 BR          -2.2140    -2.0950    -0.1600 br         1 7MB      -0.036100
     19 H1           2.9270     1.9640    -0.3800 h1         1 7MB       0.086700
     20 H3           0.5310    -0.8920     1.5710 hc         1 7MB       0.080700
     21 H4           0.4580     0.8560     1.7830 hc         1 7MB       0.080700
     22 H5           0.2270    -0.6570    -0.8680 h1         1 7MB       0.103700
     23 H6           0.7710     1.3730    -2.0020 h1         1 7MB       0.078700
     24 H7          -3.7280     2.7200     0.1850 ha         1 7MB       0.171000
     25 H8          -4.5110     0.1280     0.1580 ha         1 7MB       0.169000
     26 H9           2.1470    -2.4830     1.7190 h1         1 7MB       0.045700
     27 H10          3.5400    -2.9570     0.7520 h1         1 7MB       0.045700
     28 H11          3.7520    -1.8370     2.0980 h1         1 7MB       0.045700
     29 H12          3.4580     0.5200    -2.2730 hn         1 7MB       0.340500
     30 H13          1.1450     3.4130    -0.4560 hn         1 7MB       0.320500
     31 O            4.0270    -1.8810    -1.4330 o          1 7MB      -0.638500
     32 O2           3.0060     0.8250     1.7940 oh         1 7MB      -0.579800
     33 H2           2.7150     0.5030     2.6550 ho         1 7MB       0.423000
@<TRIPOS>BOND
     1     1     8 2   
     2     2    13 1   
     3     2    15 1   
     4     2    31 2   
     5     3     4 1   
     6     3     7 1   
     7     3    15 1   
     8     3    19 1   
     9     4     5 1   
    10     4    13 1   
    11     4    32 1   
    12     5     6 1   
    13     5    20 1   
    14     5    21 1   
    15     6     7 1   
    16     6    17 1   
    17     6    22 1   
    18     7    16 1   
    19     7    23 1   
    20     8     9 1   
    21     8    16 1   
    22     9    10 2   
    23     9    17 1   
    24    10    11 1   
    25    10    24 1   
    26    11    12 2   
    27    11    25 1   
    28    12    17 1   
    29    12    18 1   
    30    13    14 1   
    31    14    26 1   
    32    14    27 1   
    33    14    28 1   
    34    15    29 1   
    35    16    30 1   
    36    32    33 1   
@<TRIPOS>SUBSTRUCTURE
     1 7MB         1 TEMP              0 ****  ****    0 ROOT
