@<TRIPOS>MOLECULE
7MC
   66    68     1     0     0
SMALL
bcc


@<TRIPOS>ATOM
      1 C           -2.1650     0.4790     0.4780 c          1 7MC       0.675100
      2 N           -1.2390     2.7050     0.7110 ns         1 7MC      -0.518900
      3 O           -1.6180     0.2610    -0.5800 o          1 7MC      -0.591100
      4 P           -2.6160    -2.1740     0.9150 p5         1 7MC       1.583500
      5 N1           5.5050     0.9660    -2.9150 nb         1 7MC      -0.839000
      6 C2           5.8610    -0.0540    -2.1380 ca         1 7MC       0.692900
      7 N3           5.1100    -0.7580    -1.3090 nb         1 7MC      -0.738000
      8 C4           3.8470    -0.3390    -1.3130 ca         1 7MC       0.454800
      9 C5           3.3270     0.7000    -2.0700 ca         1 7MC      -0.226200
     10 C6           4.2320     1.3760    -2.9070 ca         1 7MC       0.772200
     11 N6           3.8710     2.4030    -3.6780 nv         1 7MC      -0.962500
     12 N7           1.9840     0.8490    -1.8370 nc         1 7MC      -0.565100
     13 C8           1.7030    -0.0680    -0.9580 cd         1 7MC       0.444700
     14 N8          -2.7140    -0.5190     1.2410 ns         1 7MC      -0.738900
     15 N9           2.7870    -0.8230    -0.6010 na         1 7MC      -0.260000
     16 CA          -2.3690     1.8800     1.0370 c3         1 7MC       0.055700
     17 CB          -3.6460     2.4620     0.4400 c3         1 7MC      -0.237400
     18 CG          -4.1050     3.7900     1.0880 c          1 7MC       0.927600
     19 C1           2.8250    -1.8750     0.3840 c5         1 7MC       0.266800
     20 O1P         -3.3210    -2.9130     1.9800 o          1 7MC      -0.821300
     21 C7           2.8220    -1.3680     1.8270 c5         1 7MC       0.047100
     22 O2           4.1230    -1.0650     2.2270 oh         1 7MC      -0.575800
     23 C3           2.1820    -2.5560     2.5520 c5         1 7MC       0.082100
     24 O3           3.0970    -3.6060     2.7080 oh         1 7MC      -0.587800
     25 O31         -3.0880    -2.3920    -0.5810 os         1 7MC      -0.559200
     26 C32         -4.4260    -2.0380    -0.9780 c3         1 7MC       0.200400
     27 C33         -4.3880    -1.5210    -2.3990 c3         1 7MC      -0.094400
     28 C34         -5.7770    -1.1190    -2.8770 c3         1 7MC       0.149800
     29 N35         -5.7200    -0.6350    -4.2480 n8         1 7MC      -0.887800
     30 C36         -0.0020     2.4010     1.1320 c          1 7MC       0.679100
     31 C37          1.0910     3.3450     0.7130 c3         1 7MC      -0.176100
     32 O38          0.2170     1.4080     1.8180 o          1 7MC      -0.689100
     33 C9           1.1270    -2.9750     1.5360 c5         1 7MC       0.149100
     34 O4           1.6740    -2.6630     0.2530 os         1 7MC      -0.376600
     35 C10         -0.1690    -2.2300     1.7770 c3         1 7MC       0.152400
     36 O5          -1.0730    -2.5140     0.7060 os         1 7MC      -0.538200
     37 OD1         -4.8710     4.4840     0.3950 o          1 7MC      -0.826800
     38 OD2         -3.7050     4.0290     2.2420 o          1 7MC      -0.826800
     39 HN          -1.3830     3.5170     0.1330 hn         1 7MC       0.337500
     40 HN6          4.5390     2.8370    -4.2910 hn         1 7MC       0.447800
     41 HN6A         2.9170     2.7170    -3.7130 hn         1 7MC       0.447800
     42 HN8         -3.1330    -0.2600     2.1250 hn         1 7MC       0.339500
     43 HA          -2.4860     1.8270     2.1230 h1         1 7MC       0.091700
     44 HB          -3.5280     2.5890    -0.6400 hc         1 7MC       0.037700
     45 HBA         -4.4590     1.7400     0.5720 hc         1 7MC       0.037700
     46 H1           3.7340    -2.4540     0.1890 h2         1 7MC       0.109700
     47 H2           2.1590    -0.4960     1.9040 h1         1 7MC       0.089700
     48 HO2          4.0860    -0.4880     2.9970 ho         1 7MC       0.414000
     49 H3           1.7350    -2.2590     3.5100 h1         1 7MC       0.057700
     50 HO3          3.9110    -3.2400     3.0760 ho         1 7MC       0.420000
     51 H32         -5.0580    -2.9240    -0.8980 h1         1 7MC       0.035200
     52 H32A        -4.8390    -1.2750    -0.3100 h1         1 7MC       0.035200
     53 H33         -3.7180    -0.6580    -2.4490 hc         1 7MC       0.072200
     54 H33A        -3.9850    -2.2880    -3.0650 hc         1 7MC       0.072200
     55 H34         -6.4340    -1.9920    -2.8480 h1         1 7MC       0.025700
     56 H34A        -6.2030    -0.3900    -2.1720 h1         1 7MC       0.025700
     57 HN35        -6.6570    -0.4320    -4.5710 hn         1 7MC       0.338800
     58 HN3A        -5.2270     0.2490    -4.2690 hn         1 7MC       0.338800
     59 H37          0.7260     4.2210     0.1790 hc         1 7MC       0.057033
     60 H37A         1.6420     3.6790     1.5920 hc         1 7MC       0.057033
     61 H37B         1.7900     2.8150     0.0660 hc         1 7MC       0.057033
     62 H4           0.9390    -4.0510     1.5770 h1         1 7MC       0.099700
     63 H5          -0.5800    -2.5610     2.7350 h1         1 7MC       0.057700
     64 H5'A        -0.0040    -1.1510     1.8350 h1         1 7MC       0.057700
     65 H6           6.9060    -0.3400    -2.1950 h5         1 7MC       0.036100
     66 H8           0.7200    -0.2570    -0.5570 h5         1 7MC       0.104800
@<TRIPOS>BOND
     1     1     3 2   
     2     1    14 1   
     3     1    16 1   
     4     2    16 1   
     5     2    30 1   
     6     2    39 1   
     7     4    14 1   
     8     4    20 2   
     9     4    25 1   
    10     4    36 1   
    11     5     6 ar  
    12     5    10 ar  
    13     6     7 ar  
    14     6    65 1   
    15     7     8 ar  
    16     8     9 ar  
    17     8    15 1   
    18     9    10 ar  
    19     9    12 1   
    20    10    11 1   
    21    11    40 1   
    22    11    41 1   
    23    12    13 2   
    24    13    15 1   
    25    13    66 1   
    26    14    42 1   
    27    15    19 1   
    28    16    17 1   
    29    16    43 1   
    30    17    18 1   
    31    17    44 1   
    32    17    45 1   
    33    18    37 1   
    34    18    38 1   
    35    19    21 1   
    36    19    34 1   
    37    19    46 1   
    38    21    22 1   
    39    21    23 1   
    40    21    47 1   
    41    22    48 1   
    42    23    24 1   
    43    23    33 1   
    44    23    49 1   
    45    24    50 1   
    46    25    26 1   
    47    26    27 1   
    48    26    51 1   
    49    26    52 1   
    50    27    28 1   
    51    27    53 1   
    52    27    54 1   
    53    28    29 1   
    54    28    55 1   
    55    28    56 1   
    56    29    57 1   
    57    29    58 1   
    58    30    31 1   
    59    30    32 2   
    60    31    59 1   
    61    31    60 1   
    62    31    61 1   
    63    33    34 1   
    64    33    35 1   
    65    33    62 1   
    66    35    36 1   
    67    35    63 1   
    68    35    64 1   
@<TRIPOS>SUBSTRUCTURE
     1 7MC         1 TEMP              0 ****  ****    0 ROOT
