@<TRIPOS>MOLECULE
7MC
   66    68     1     0     0
SMALL
No Charge or Current Charge


@<TRIPOS>ATOM
      1 C           -2.0430     0.2310     0.4600 c          1 7MC       0.608100
      2 N           -0.9090     2.4460     0.4650 ns         1 7MC      -0.451900
      3 O           -1.5210    -0.0860    -0.5970 o          1 7MC      -0.591100
      4 P           -2.7930    -2.3350     1.1370 p5         1 7MC       1.354200
      5 N1           4.4180     2.1960    -2.0920 nb         1 7MC      -0.313000
      6 C2           4.9190     1.5360    -1.0210 ca         1 7MC       0.166900
      7 N3           4.3900     0.4420    -0.4250 nb         1 7MC      -0.212000
      8 C4           3.2450    -0.0270    -0.9620 ca         1 7MC       0.126500
      9 C5           2.6530     0.5700    -2.0460 ca         1 7MC      -0.095600
     10 C6           3.2780     1.7060    -2.6020 ca         1 7MC       0.443900
     11 N6           2.7770     2.3650    -3.6800 nv         1 7MC      -1.072900
     12 N7           1.4870    -0.0760    -2.4370 nc         1 7MC      -0.565100
     13 C8           1.4030    -1.0760    -1.5350 cd         1 7MC       0.444700
     14 N8          -2.6470    -0.6820     1.2660 ns         1 7MC      -0.671900
     15 N9           2.4710    -1.1050    -0.6150 na         1 7MC      -0.289300
     16 CA          -2.0560     1.6890     1.0030 c3         1 7MC       0.055700
     17 CB          -3.3940     2.4080     0.6870 c3         1 7MC      -0.237400
     18 CG          -3.4080     3.8160     1.2910 c          1 7MC       0.717000
     19 C1           2.7560    -2.1300     0.3860 c5         1 7MC       0.319300
     20 O1P         -3.5560    -2.8900     2.2850 o          1 7MC      -0.592000
     21 C7           2.8690    -1.6240     1.8730 c5         1 7MC       0.070300
     22 O2           4.2260    -1.4560     2.3410 oh         1 7MC      -0.698000
     23 C3           2.1570    -2.7590     2.6620 c5         1 7MC       0.105300
     24 O3           3.0870    -3.8160     2.9250 oh         1 7MC      -0.710000
     25 O31         -3.3810    -2.5510    -0.3520 os         1 7MC      -0.582400
     26 C32         -4.4950    -1.7950    -0.8450 c3         1 7MC       0.223600
     27 C33         -4.2440    -1.5100    -2.3360 c3         1 7MC      -0.094400
     28 C34         -5.3790    -0.6910    -2.9770 c3         1 7MC       0.149800
     29 N35         -5.1330    -0.4540    -4.4100 n8         1 7MC      -0.998200
     30 C36          0.3960     2.2350     0.8400 c          1 7MC       0.612100
     31 C37          1.4170     3.1360     0.1580 c3         1 7MC      -0.176100
     32 O38          0.7100     1.3890     1.6660 o          1 7MC      -0.689100
     33 C9           1.0370    -3.1540     1.6490 c5         1 7MC       0.172300
     34 O4           1.7280    -3.1520     0.3730 os         1 7MC      -0.423000
     35 C10         -0.1670    -2.1710     1.6170 c3         1 7MC       0.175600
     36 O5          -1.2630    -2.8170     0.9410 os         1 7MC      -0.561400
     37 OD1         -3.0040     4.7400     0.6040 o          1 7MC      -0.721500
     38 OD2         -3.7820     3.9370     2.4470 o          1 7MC      -0.721500
     39 HN          -1.0810     3.1750    -0.2160 hn         1 7MC       0.337500
     40 HN6          3.4050     2.9700    -4.2020 hn         1 7MC       0.503000
     41 HN6A         2.0490     1.8940    -4.2090 hn         1 7MC       0.503000
     42 HN8         -3.0720    -0.3690     2.1220 hn         1 7MC       0.339500
     43 HA          -1.9400     1.6270     2.0940 h1         1 7MC       0.091700
     44 HB          -3.4680     2.4570    -0.4060 hc         1 7MC       0.037700
     45 HBA         -4.1750     1.7940     1.1520 hc         1 7MC       0.037700
     46 H1           3.7050    -2.5880     0.0790 h2         1 7MC       0.109700
     47 H2           2.3080    -0.6850     1.9880 h1         1 7MC       0.089700
     48 HO2          4.5880    -0.6390     1.9180 ho         1 7MC       0.513000
     49 H3           1.7330    -2.3840     3.6050 h1         1 7MC       0.057700
     50 HO3          3.9580    -3.3430     2.9230 ho         1 7MC       0.519000
     51 H32         -5.4230    -2.3720    -0.7360 h1         1 7MC       0.035200
     52 H32A        -4.6250    -0.8440    -0.3110 h1         1 7MC       0.035200
     53 H33         -3.2980    -0.9680    -2.4460 hc         1 7MC       0.072200
     54 H33A        -4.1380    -2.4630    -2.8670 hc         1 7MC       0.072200
     55 H34         -6.3310    -1.2300    -2.8700 h1         1 7MC       0.025700
     56 H34A        -5.4700     0.2800    -2.4690 h1         1 7MC       0.025700
     57 HN35        -5.8850     0.1380    -4.7860 hn         1 7MC       0.394000
     58 HN3A        -4.2940     0.1300    -4.5150 hn         1 7MC       0.394000
     59 H37          1.1710     4.1800     0.3810 hc         1 7MC       0.057033
     60 H37A         2.4470     2.8980     0.4450 hc         1 7MC       0.057033
     61 H37B         1.2710     3.0890    -0.9260 hc         1 7MC       0.057033
     62 H4           0.6540    -4.1620     1.8590 h1         1 7MC       0.099700
     63 H5          -0.4440    -1.9200     2.6500 h1         1 7MC       0.057700
     64 H5'A         0.1280    -1.2450     1.1090 h1         1 7MC       0.057700
     65 H6           5.8440     1.9240    -0.5970 h5         1 7MC       0.036100
     66 H8           0.6190    -1.8250    -1.5060 h5         1 7MC       0.104800
@<TRIPOS>BOND
     1     1     3 2   
     2     1    14 1   
     3     1    16 1   
     4     2    16 1   
     5     2    30 1   
     6     2    39 1   
     7     4    14 1   
     8     4    20 2   
     9     4    25 1   
    10     4    36 1   
    11     5     6 ar  
    12     5    10 ar  
    13     6     7 ar  
    14     6    65 1   
    15     7     8 ar  
    16     8     9 ar  
    17     8    15 1   
    18     9    10 ar  
    19     9    12 1   
    20    10    11 1   
    21    11    40 1   
    22    11    41 1   
    23    12    13 2   
    24    13    15 1   
    25    13    66 1   
    26    14    42 1   
    27    15    19 1   
    28    16    17 1   
    29    16    43 1   
    30    17    18 1   
    31    17    44 1   
    32    17    45 1   
    33    18    37 1   
    34    18    38 1   
    35    19    21 1   
    36    19    34 1   
    37    19    46 1   
    38    21    22 1   
    39    21    23 1   
    40    21    47 1   
    41    22    48 1   
    42    23    24 1   
    43    23    33 1   
    44    23    49 1   
    45    24    50 1   
    46    25    26 1   
    47    26    27 1   
    48    26    51 1   
    49    26    52 1   
    50    27    28 1   
    51    27    53 1   
    52    27    54 1   
    53    28    29 1   
    54    28    55 1   
    55    28    56 1   
    56    29    57 1   
    57    29    58 1   
    58    30    31 1   
    59    30    32 2   
    60    31    59 1   
    61    31    60 1   
    62    31    61 1   
    63    33    34 1   
    64    33    35 1   
    65    33    62 1   
    66    35    36 1   
    67    35    63 1   
    68    35    64 1   
@<TRIPOS>SUBSTRUCTURE
     1 7MC         1 TEMP              0 ****  ****    0 ROOT
