@<TRIPOS>MOLECULE
7MD
   61    63     1     0     0
SMALL
bcc


@<TRIPOS>ATOM
      1 C           -1.5660     0.6330    -0.0220 c          1 7MD       0.629100
      2 N           -0.7710     2.8600    -0.7980 n8         1 7MD      -0.853800
      3 O           -1.1010     0.0430    -0.9710 o          1 7MD      -0.588100
      4 P           -2.3960    -1.6890     1.1640 p5         1 7MD       1.580500
      5 N1           4.8990     1.6920    -2.4820 nb         1 7MD      -0.839000
      6 C2           5.2290     0.4280    -2.2350 ca         1 7MD       0.704900
      7 N3           4.6750    -0.4140    -1.3790 nb         1 7MD      -0.750000
      8 C4           3.6650     0.1480    -0.7220 ca         1 7MD       0.469800
      9 C5           3.2070     1.4470    -0.8690 ca         1 7MD      -0.224200
     10 C6           3.8820     2.2440    -1.8120 ca         1 7MD       0.783200
     11 N6           3.5430     3.5090    -2.0620 nv         1 7MD      -0.951500
     12 N7           2.1420     1.6830    -0.0370 nc         1 7MD      -0.542100
     13 C8           1.9640     0.5590     0.5900 cd         1 7MD       0.418700
     14 N8          -2.0740    -0.0350     1.0720 ns         1 7MD      -0.749900
     15 N9           2.8590    -0.4100     0.2310 na         1 7MD      -0.259000
     16 CA          -1.6940     2.1510     0.0520 c3         1 7MD       0.110500
     17 CB          -3.1330     2.5240    -0.3130 c3         1 7MD      -0.207400
     18 CG          -3.4440     4.0110    -0.0430 c          1 7MD       0.945600
     19 C1           2.8880    -1.7780     0.6810 c5         1 7MD       0.261800
     20 O1P         -3.0940    -1.9760     2.4330 o          1 7MD      -0.829300
     21 C7           2.9990    -1.9270     2.2000 c5         1 7MD       0.056100
     22 O2           4.3400    -1.8920     2.5810 oh         1 7MD      -0.573800
     23 C3           2.3000    -3.2720     2.4190 c5         1 7MD       0.082100
     24 O3           3.1420    -4.3380     2.0690 oh         1 7MD      -0.580800
     25 O31         -3.1130    -2.0920    -0.1910 os         1 7MD      -0.562200
     26 C32         -4.4080    -1.5540    -0.5150 c3         1 7MD       0.199400
     27 C33         -4.4540    -1.2370    -1.9930 c3         1 7MD      -0.095400
     28 C34         -5.8370    -0.7620    -2.4150 c3         1 7MD       0.148800
     29 N35         -5.8490    -0.4280    -3.8300 n8         1 7MD      -0.871800
     30 C9           1.1790    -3.1890     1.3920 c5         1 7MD       0.141100
     31 O4           1.6980    -2.4180     0.3110 os         1 7MD      -0.365600
     32 C10         -0.0700    -2.5480     1.9600 c3         1 7MD       0.175400
     33 O5          -1.0310    -2.4670     0.9090 os         1 7MD      -0.533200
     34 OD1         -4.0990     4.6140    -0.9130 o          1 7MD      -0.836800
     35 OD2         -3.0460     4.4690     1.0460 o          1 7MD      -0.836800
     36 HN           0.1860     2.6310    -0.5480 hn         1 7MD       0.341800
     37 HNA         -0.8930     2.5630    -1.7590 hn         1 7MD       0.341800
     38 HN6          4.0550     4.0480    -2.7390 hn         1 7MD       0.454800
     39 HN6A         2.8040     3.9620    -1.5540 hn         1 7MD       0.454800
     40 HN8         -2.3990     0.5230     1.8520 hn         1 7MD       0.339500
     41 HA          -1.5240     2.4640     1.0870 h1         1 7MD       0.088700
     42 HB          -3.3160     2.2730    -1.3630 hc         1 7MD       0.021200
     43 HBA         -3.8390     1.9250     0.2740 hc         1 7MD       0.021200
     44 H1           3.7540    -2.2380     0.1920 h2         1 7MD       0.119700
     45 H2           2.4200    -1.1400     2.7000 h1         1 7MD       0.054700
     46 HO2          4.3920    -1.6970     3.5220 ho         1 7MD       0.413000
     47 H3           1.9170    -3.3740     3.4430 h1         1 7MD       0.053700
     48 HO3          4.0100    -4.1710     2.4570 ho         1 7MD       0.420000
     49 H32         -5.1600    -2.2990    -0.2460 h1         1 7MD       0.037200
     50 H32A        -4.6170    -0.6520     0.0700 h1         1 7MD       0.037200
     51 H33         -3.7180    -0.4670    -2.2310 hc         1 7MD       0.071200
     52 H33A        -4.1840    -2.1310    -2.5630 hc         1 7MD       0.071200
     53 H34         -6.5790    -1.5240    -2.1360 h1         1 7MD       0.027200
     54 H34A        -6.0970     0.1380    -1.8510 h1         1 7MD       0.027200
     55 HN35        -5.7240    -1.2720    -4.3750 hn         1 7MD       0.331300
     56 HN3A        -6.7630    -0.0750    -4.0830 hn         1 7MD       0.331300
     57 H4           0.9220    -4.1850     1.0170 h1         1 7MD       0.108700
     58 H5          -0.4500    -3.1630     2.7790 h1         1 7MD       0.037200
     59 H5'A         0.1440    -1.5520     2.3630 h1         1 7MD       0.037200
     60 H6           6.0620     0.0410    -2.8120 h5         1 7MD       0.038100
     61 H8           1.1950     0.3830     1.3270 h5         1 7MD       0.063800
@<TRIPOS>BOND
     1     1     3 2   
     2     1    14 1   
     3     1    16 1   
     4     2    16 1   
     5     2    36 1   
     6     2    37 1   
     7     4    14 1   
     8     4    20 2   
     9     4    25 1   
    10     4    33 1   
    11     5     6 ar  
    12     5    10 ar  
    13     6     7 ar  
    14     6    60 1   
    15     7     8 ar  
    16     8     9 ar  
    17     8    15 1   
    18     9    10 ar  
    19     9    12 1   
    20    10    11 1   
    21    11    38 1   
    22    11    39 1   
    23    12    13 2   
    24    13    15 1   
    25    13    61 1   
    26    14    40 1   
    27    15    19 1   
    28    16    17 1   
    29    16    41 1   
    30    17    18 1   
    31    17    42 1   
    32    17    43 1   
    33    18    34 1   
    34    18    35 1   
    35    19    21 1   
    36    19    31 1   
    37    19    44 1   
    38    21    22 1   
    39    21    23 1   
    40    21    45 1   
    41    22    46 1   
    42    23    24 1   
    43    23    30 1   
    44    23    47 1   
    45    24    48 1   
    46    25    26 1   
    47    26    27 1   
    48    26    49 1   
    49    26    50 1   
    50    27    28 1   
    51    27    51 1   
    52    27    52 1   
    53    28    29 1   
    54    28    53 1   
    55    28    54 1   
    56    29    55 1   
    57    29    56 1   
    58    30    31 1   
    59    30    32 1   
    60    30    57 1   
    61    32    33 1   
    62    32    58 1   
    63    32    59 1   
@<TRIPOS>SUBSTRUCTURE
     1 7MD         1 TEMP              0 ****  ****    0 ROOT
