@<TRIPOS>MOLECULE
7MD
   61    63     1     0     0
SMALL
No Charge or Current Charge


@<TRIPOS>ATOM
      1 C           -1.0750     1.4570    -1.5110 c          1 7MD       0.562100
      2 N            0.6880     3.1620    -2.3180 n8         1 7MD      -0.964200
      3 O           -1.1400     0.8280    -2.5580 o          1 7MD      -0.588100
      4 P           -2.0700    -0.5670     0.0690 p5         1 7MD       1.351200
      5 N1           5.5660     2.1270    -0.0850 nb         1 7MD      -0.313000
      6 C2           5.4680     1.2170     0.9120 ca         1 7MD       0.178900
      7 N3           4.5550     0.2220     1.0130 nb         1 7MD      -0.224000
      8 C4           3.6590     0.1420     0.0100 ca         1 7MD       0.141500
      9 C5           3.6670     1.0160    -1.0470 ca         1 7MD      -0.093600
     10 C6           4.6600     2.0200    -1.0690 ca         1 7MD       0.454900
     11 N6           4.7620     2.9350    -2.0680 nv         1 7MD      -1.061900
     12 N7           2.6520     0.7540    -1.9610 nc         1 7MD      -0.542100
     13 C8           2.0490    -0.3160    -1.4090 cd         1 7MD       0.418700
     14 N8          -1.4400     0.9180    -0.3170 ns         1 7MD      -0.682900
     15 N9           2.6230    -0.7300    -0.1930 na         1 7MD      -0.288300
     16 CA          -0.5010     2.9200    -1.4370 c3         1 7MD       0.110500
     17 CB          -1.6100     3.9680    -1.7290 c3         1 7MD      -0.207400
     18 CG          -1.4040     5.2220    -0.8650 c          1 7MD       0.735000
     19 C1           2.1760    -1.8200     0.6670 c5         1 7MD       0.314300
     20 O1P         -2.3060    -0.6430     1.5330 o          1 7MD      -0.600000
     21 C7           1.1610    -1.4040     1.7830 c5         1 7MD       0.079300
     22 O2           1.7780    -0.9350     3.0010 oh         1 7MD      -0.696000
     23 C3           0.4210    -2.7470     2.0190 c5         1 7MD       0.105300
     24 O3           1.2080    -3.5660     2.8910 oh         1 7MD      -0.703000
     25 O31         -3.3160    -0.6940    -0.9480 os         1 7MD      -0.585400
     26 C32         -4.2000    -1.8270    -1.0100 c3         1 7MD       0.222600
     27 C33         -4.8760    -2.0920     0.3550 c3         1 7MD      -0.095400
     28 C34         -6.0100    -3.1280     0.2470 c3         1 7MD       0.148800
     29 N35         -6.6220    -3.3960     1.5600 n8         1 7MD      -0.982200
     30 C9           0.3310    -3.3160     0.5620 c5         1 7MD       0.164300
     31 O4           1.5120    -2.8260    -0.1320 os         1 7MD      -0.412000
     32 C10         -0.9530    -2.9540    -0.2470 c3         1 7MD       0.198600
     33 O5          -0.9830    -1.5570    -0.5880 os         1 7MD      -0.556400
     34 OD1         -0.8100     6.1760    -1.3460 o          1 7MD      -0.731500
     35 OD2         -1.8320     5.2000     0.2800 o          1 7MD      -0.731500
     36 HN           1.3880     2.4280    -2.1340 hn         1 7MD       0.397000
     37 HNA          0.4110     2.9690    -3.2870 hn         1 7MD       0.397000
     38 HN6          5.2880     3.7840    -1.8800 hn         1 7MD       0.510000
     39 HN6A         3.9670     3.0240    -2.6960 hn         1 7MD       0.510000
     40 HN8         -1.3730     1.4820     0.5140 hn         1 7MD       0.339500
     41 HA          -0.1710     3.0530    -0.3950 h1         1 7MD       0.088700
     42 HB          -1.5810     4.2070    -2.8010 hc         1 7MD       0.021200
     43 HBA         -2.5490     3.4860    -1.4240 hc         1 7MD       0.021200
     44 H1           3.0740    -2.2580     1.1220 h2         1 7MD       0.119700
     45 H2           0.4730    -0.6420     1.3980 h1         1 7MD       0.054700
     46 HO2          2.1700    -0.0480     2.8170 ho         1 7MD       0.512000
     47 H3          -0.5760    -2.5840     2.4520 h1         1 7MD       0.053700
     48 HO3          1.6780    -2.9020     3.4570 ho         1 7MD       0.519000
     49 H32         -4.9800    -1.6330    -1.7580 h1         1 7MD       0.037200
     50 H32A        -3.6580    -2.7260    -1.3330 h1         1 7MD       0.037200
     51 H33         -4.1370    -2.4650     1.0730 hc         1 7MD       0.071200
     52 H33A        -5.2810    -1.1500     0.7470 hc         1 7MD       0.071200
     53 H34         -6.7870    -2.7620    -0.4390 h1         1 7MD       0.027200
     54 H34A        -5.6100    -4.0720    -0.1520 h1         1 7MD       0.027200
     55 HN35        -7.0830    -2.5420     1.8970 hn         1 7MD       0.386500
     56 HN3A        -7.4000    -4.0570     1.4380 hn         1 7MD       0.386500
     57 H4           0.3810    -4.4130     0.5940 h1         1 7MD       0.108700
     58 H5          -0.9620    -3.5550    -1.1650 h1         1 7MD       0.037200
     59 H5'A        -1.8340    -3.2460     0.3400 h1         1 7MD       0.037200
     60 H6           6.1990     1.2920     1.7150 h5         1 7MD       0.038100
     61 H8           1.1950    -0.8350    -1.8290 h5         1 7MD       0.063800
@<TRIPOS>BOND
     1     1     3 2   
     2     1    14 1   
     3     1    16 1   
     4     2    16 1   
     5     2    36 1   
     6     2    37 1   
     7     4    14 1   
     8     4    20 2   
     9     4    25 1   
    10     4    33 1   
    11     5     6 ar  
    12     5    10 ar  
    13     6     7 ar  
    14     6    60 1   
    15     7     8 ar  
    16     8     9 ar  
    17     8    15 1   
    18     9    10 ar  
    19     9    12 1   
    20    10    11 1   
    21    11    38 1   
    22    11    39 1   
    23    12    13 2   
    24    13    15 1   
    25    13    61 1   
    26    14    40 1   
    27    15    19 1   
    28    16    17 1   
    29    16    41 1   
    30    17    18 1   
    31    17    42 1   
    32    17    43 1   
    33    18    34 1   
    34    18    35 1   
    35    19    21 1   
    36    19    31 1   
    37    19    44 1   
    38    21    22 1   
    39    21    23 1   
    40    21    45 1   
    41    22    46 1   
    42    23    24 1   
    43    23    30 1   
    44    23    47 1   
    45    24    48 1   
    46    25    26 1   
    47    26    27 1   
    48    26    49 1   
    49    26    50 1   
    50    27    28 1   
    51    27    51 1   
    52    27    52 1   
    53    28    29 1   
    54    28    53 1   
    55    28    54 1   
    56    29    55 1   
    57    29    56 1   
    58    30    31 1   
    59    30    32 1   
    60    30    57 1   
    61    32    33 1   
    62    32    58 1   
    63    32    59 1   
@<TRIPOS>SUBSTRUCTURE
     1 7MD         1 TEMP              0 ****  ****    0 ROOT
