@<TRIPOS>MOLECULE
7ME
   27    28     1     0     0
SMALL
No Charge or Current Charge


@<TRIPOS>ATOM
      1 N1          -1.0080    -1.4760     0.0050 nb         1 7ME      -0.289000
      2 C2          -2.2040    -0.8790     0.0680 ca         1 7ME       0.404900
      3 N3          -2.4660     0.4300     0.1160 nb         1 7ME      -0.331000
      4 C4          -1.3980     1.2330     0.0970 ca         1 7ME       0.424900
      5 C5           1.1460     1.6740     0.0200 c6         1 7ME       0.003900
      6 C6           2.4560     0.9580    -0.3890 c6         1 7ME      -0.070400
      7 C7           2.5980    -0.4090     0.3240 c6         1 7ME      -0.060700
      8 C8           1.4290    -1.3400    -0.0870 c6         1 7ME      -0.133700
      9 C13          3.9740    -1.0670     0.0390 c3         1 7ME      -0.086100
     10 C4A         -0.0820     0.7470     0.0240 ca         1 7ME      -0.306300
     11 C8A          0.0620    -0.6570    -0.0110 ca         1 7ME       0.195300
     12 NA2         -3.2800    -1.6980     0.0820 nv         1 7ME      -1.050900
     13 NA4         -1.6860     2.5550     0.1570 nv         1 7ME      -1.087900
     14 H5           1.2700     2.1000     1.0250 hc         1 7ME       0.034700
     15 H5A          0.9840     2.5240    -0.6570 hc         1 7ME       0.034700
     16 H6           2.4680     0.8090    -1.4780 hc         1 7ME       0.041200
     17 H6A          3.3130     1.6040    -0.1540 hc         1 7ME       0.041200
     18 H7           2.5510    -0.2430     1.4100 hc         1 7ME       0.052700
     19 H8           1.5820    -1.6920    -1.1160 hc         1 7ME       0.064200
     20 H8A          1.4340    -2.2360     0.5480 hc         1 7ME       0.064200
     21 H13          4.7970    -0.4230     0.3720 hc         1 7ME       0.034033
     22 H13A         4.0710    -2.0240     0.5650 hc         1 7ME       0.034033
     23 H13B         4.1120    -1.2580    -1.0320 hc         1 7ME       0.034033
     24 HNA2        -3.1460    -2.6730    -0.1760 hn         1 7ME       0.482000
     25 HNAA        -4.1970    -1.2960    -0.0940 hn         1 7ME       0.482000
     26 HNA4        -2.6470     2.8420    -0.0110 hn         1 7ME       0.493500
     27 HNAB        -0.9610     3.2230    -0.0860 hn         1 7ME       0.493500
@<TRIPOS>BOND
     1     1     2 ar  
     2     1    11 ar  
     3     2     3 ar  
     4     2    12 1   
     5     3     4 ar  
     6     4    10 ar  
     7     4    13 1   
     8     5     6 1   
     9     5    10 1   
    10     5    14 1   
    11     5    15 1   
    12     6     7 1   
    13     6    16 1   
    14     6    17 1   
    15     7     8 1   
    16     7     9 1   
    17     7    18 1   
    18     8    11 1   
    19     8    19 1   
    20     8    20 1   
    21     9    21 1   
    22     9    22 1   
    23     9    23 1   
    24    10    11 ar  
    25    12    24 1   
    26    12    25 1   
    27    13    26 1   
    28    13    27 1   
@<TRIPOS>SUBSTRUCTURE
     1 7ME         1 TEMP              0 ****  ****    0 ROOT
