@<TRIPOS>MOLECULE
7ME
   27    28     1     0     0
SMALL
bcc


@<TRIPOS>ATOM
      1 N1          -0.9800    -1.4720    -0.0090 nb         1 7ME      -0.815000
      2 C2          -2.1770    -0.9000     0.0370 ca         1 7ME       0.930900
      3 N3          -2.4240     0.4080     0.0890 nb         1 7ME      -0.857000
      4 C4          -1.3690     1.2190     0.0800 ca         1 7ME       0.753200
      5 C5           1.1410     1.6550    -0.0310 c6         1 7ME       0.003900
      6 C6           2.4270     0.9350    -0.4160 c6         1 7ME      -0.070400
      7 C7           2.5690    -0.3850     0.3300 c6         1 7ME      -0.060700
      8 C8           1.4230    -1.3060    -0.0730 c6         1 7ME      -0.133700
      9 C13          3.9170    -1.0430     0.0740 c3         1 7ME      -0.086100
     10 C4A         -0.0430     0.7290    -0.0010 ca         1 7ME      -0.436900
     11 C8A          0.0740    -0.6460    -0.0240 ca         1 7ME       0.523600
     12 NA2         -3.2580    -1.7230     0.0830 nv         1 7ME      -0.940500
     13 NA4         -1.6170     2.5370     0.1670 nv         1 7ME      -0.977500
     14 H5           1.2670     2.1290     0.9500 hc         1 7ME       0.034700
     15 H5A          0.9660     2.4730    -0.7380 hc         1 7ME       0.034700
     16 H6           2.4310     0.7350    -1.4940 hc         1 7ME       0.041200
     17 H6A          3.2830     1.5850    -0.2180 hc         1 7ME       0.041200
     18 H7           2.4820    -0.1810     1.4050 hc         1 7ME       0.052700
     19 H8           1.5920    -1.6700    -1.0950 hc         1 7ME       0.064200
     20 H8A          1.3980    -2.1960     0.5620 hc         1 7ME       0.064200
     21 H13          4.7370    -0.4000     0.3990 hc         1 7ME       0.034033
     22 H13A         4.0070    -1.9900     0.6090 hc         1 7ME       0.034033
     23 H13B         4.0560    -1.2480    -0.9900 hc         1 7ME       0.034033
     24 HNA2        -3.1210    -2.6760    -0.2070 hn         1 7ME       0.426800
     25 HNAA        -4.1540    -1.3260    -0.1420 hn         1 7ME       0.426800
     26 HNA4        -2.5670     2.8640     0.1410 hn         1 7ME       0.438300
     27 HNAB        -0.8890     3.2210     0.0710 hn         1 7ME       0.438300
@<TRIPOS>BOND
     1     1     2 ar  
     2     1    11 ar  
     3     2     3 ar  
     4     2    12 1   
     5     3     4 ar  
     6     4    10 ar  
     7     4    13 1   
     8     5     6 1   
     9     5    10 1   
    10     5    14 1   
    11     5    15 1   
    12     6     7 1   
    13     6    16 1   
    14     6    17 1   
    15     7     8 1   
    16     7     9 1   
    17     7    18 1   
    18     8    11 1   
    19     8    19 1   
    20     8    20 1   
    21     9    21 1   
    22     9    22 1   
    23     9    23 1   
    24    10    11 ar  
    25    12    24 1   
    26    12    25 1   
    27    13    26 1   
    28    13    27 1   
@<TRIPOS>SUBSTRUCTURE
     1 7ME         1 TEMP              0 ****  ****    0 ROOT
