@<TRIPOS>MOLECULE
7MF
   40    42     1     0     0
SMALL
No Charge or Current Charge


@<TRIPOS>ATOM
      1 C10         -5.3110     1.6950     0.0290 ca         1 7MF      -0.093000
      2 O2          -1.1340    -1.9190    -1.3750 oh         1 7MF      -0.703500
      3 C11         -4.5950     1.6390    -1.1790 ca         1 7MF      -0.104000
      4 C12         -3.1970     1.5020    -1.1610 ca         1 7MF      -0.108500
      5 C15          1.6280    -2.4050    -0.0460 c3         1 7MF      -0.095400
      6 C13          1.8140    -1.2340     0.9440 c3         1 7MF      -0.025100
      7 C14         -1.1320    -1.1530     0.9370 c3         1 7MF      -0.085100
      8 O1          -2.1030    -3.2300     0.1620 oh         1 7MF      -0.703500
      9 C16         -1.0090    -2.3550    -0.0370 c3         1 7MF       0.396000
     10 C17          0.3110    -3.1950     0.1330 c3         1 7MF       0.142300
     11 C1           1.8190     1.1690     0.0250 ca         1 7MF      -0.007900
     12 C2           1.1500     2.3220    -0.4020 ca         1 7MF      -0.065000
     13 C3          -0.2460     2.3740    -0.3770 ca         1 7MF      -0.082000
     14 C4          -1.0070     1.2770     0.0750 cp         1 7MF      -0.011000
     15 C5          -0.3330     0.0930     0.5060 ca         1 7MF      -0.082300
     16 C6           1.0890     0.0420     0.4900 ca         1 7MF      -0.057300
     17 C7          -2.4930     1.4090     0.0630 cp         1 7MF      -0.078000
     18 C8          -3.2290     1.4820     1.2700 ca         1 7MF      -0.108500
     19 C9          -4.6270     1.6190     1.2540 ca         1 7MF      -0.104000
     20 N1           0.3100    -4.3690    -0.8150 nz         1 7MF      -0.968000
     21 H8          -6.3940     1.8030     0.0160 ha         1 7MF       0.129000
     22 H19         -1.4610    -0.9960    -1.3250 ho         1 7MF       0.495000
     23 H9          -5.1240     1.7050    -2.1280 ha         1 7MF       0.127000
     24 H10         -2.6510     1.4650    -2.1020 ha         1 7MF       0.119000
     25 H15          1.7080    -2.0300    -1.0740 hc         1 7MF       0.072700
     26 H16          2.4630    -3.1020     0.0950 hc         1 7MF       0.072700
     27 H12          1.4770    -1.5360     1.9430 hc         1 7MF       0.076700
     28 H11          2.8880    -1.0710     1.0740 hc         1 7MF       0.076700
     29 H14         -2.1930    -0.9150     1.0540 hc         1 7MF       0.080700
     30 H13         -0.8250    -1.4730     1.9400 hc         1 7MF       0.080700
     31 H18         -2.8990    -2.6650     0.2450 ho         1 7MF       0.495000
     32 H17          0.3000    -3.5890     1.1550 hx         1 7MF       0.111700
     33 H4           1.7150     3.1800    -0.7600 ha         1 7MF       0.149000
     34 H5          -0.7530     3.2770    -0.7110 ha         1 7MF       0.141000
     35 H6          -2.7050     1.4300     2.2220 ha         1 7MF       0.119000
     36 H7          -5.1800     1.6690     2.1900 ha         1 7MF       0.127000
     37 H3           1.1010    -5.0180    -0.7030 hn         1 7MF       0.515000
     38 H2          -0.5540    -4.9210    -0.7060 hn         1 7MF       0.515000
     39 H1           0.2960    -4.0600    -1.7970 hn         1 7MF       0.515000
     40 Br1          3.7410     1.2010    -0.0880 br         1 7MF      -0.072100
@<TRIPOS>BOND
     1     1     3 ar  
     2     1    19 ar  
     3     1    21 1   
     4     2     9 1   
     5     2    22 1   
     6     3     4 ar  
     7     3    23 1   
     8     4    17 ar  
     9     4    24 1   
    10     5     6 1   
    11     5    10 1   
    12     5    25 1   
    13     5    26 1   
    14     6    16 1   
    15     6    27 1   
    16     6    28 1   
    17     7     9 1   
    18     7    15 1   
    19     7    29 1   
    20     7    30 1   
    21     8     9 1   
    22     8    31 1   
    23     9    10 1   
    24    10    20 1   
    25    10    32 1   
    26    11    12 ar  
    27    11    16 ar  
    28    11    40 1   
    29    12    13 ar  
    30    12    33 1   
    31    13    14 ar  
    32    13    34 1   
    33    14    15 ar  
    34    14    17 1   
    35    15    16 ar  
    36    17    18 ar  
    37    18    19 ar  
    38    18    35 1   
    39    19    36 1   
    40    20    37 1   
    41    20    38 1   
    42    20    39 1   
@<TRIPOS>SUBSTRUCTURE
     1 7MF         1 TEMP              0 ****  ****    0 ROOT
