@<TRIPOS>MOLECULE
7MF
   40    42     1     0     0
SMALL
abcg2


@<TRIPOS>ATOM
      1 C10         -5.2270     1.5910     0.0160 ca         1 7MF      -0.093000
      2 O2          -1.0380    -1.8280    -1.3670 oh         1 7MF      -0.703500
      3 C11         -4.5100     1.4700    -1.1650 ca         1 7MF      -0.104000
      4 C12         -3.1250     1.3630    -1.1320 ca         1 7MF      -0.108500
      5 C15          1.5650    -2.3630    -0.0690 c3         1 7MF      -0.095400
      6 C13          1.7710    -1.2270     0.9390 c3         1 7MF      -0.025100
      7 C14         -1.0830    -1.0980     0.9570 c3         1 7MF      -0.085100
      8 O1          -2.0590    -3.1730     0.2200 oh         1 7MF      -0.703500
      9 C16         -1.0260    -2.2670    -0.0450 c3         1 7MF       0.396000
     10 C17          0.2510    -3.0980     0.1220 c3         1 7MF       0.142300
     11 C1           1.8040     1.1660     0.0600 ca         1 7MF      -0.007900
     12 C2           1.1570     2.3170    -0.3660 ca         1 7MF      -0.065000
     13 C3          -0.2230     2.3600    -0.3420 ca         1 7MF      -0.082000
     14 C4          -0.9630     1.2700     0.1040 cp         1 7MF      -0.011000
     15 C5          -0.3000     0.1150     0.5310 ca         1 7MF      -0.082300
     16 C6           1.1030     0.0520     0.5180 ca         1 7MF      -0.057300
     17 C7          -2.4440     1.3720     0.0840 cp         1 7MF      -0.078000
     18 C8          -3.1720     1.5000     1.2660 ca         1 7MF      -0.108500
     19 C9          -4.5540     1.6090     1.2320 ca         1 7MF      -0.104000
     20 N1           0.1980    -4.2360    -0.8430 nz         1 7MF      -0.968000
     21 H8          -6.3050     1.6740    -0.0090 ha         1 7MF       0.129000
     22 H19         -1.7440    -1.1870    -1.5140 ho         1 7MF       0.495000
     23 H9          -5.0260     1.4570    -2.1160 ha         1 7MF       0.127000
     24 H10         -2.5680     1.2740    -2.0580 ha         1 7MF       0.119000
     25 H15          1.6540    -1.9840    -1.0890 hc         1 7MF       0.072700
     26 H16          2.3690    -3.0880     0.0690 hc         1 7MF       0.072700
     27 H12          1.3990    -1.5340     1.9210 hc         1 7MF       0.076700
     28 H11          2.8390    -1.0840     1.0730 hc         1 7MF       0.076700
     29 H14         -2.1340    -0.8300     1.0840 hc         1 7MF       0.080700
     30 H13         -0.7620    -1.4550     1.9390 hc         1 7MF       0.080700
     31 H18         -2.9130    -2.7250     0.2170 ho         1 7MF       0.495000
     32 H17          0.2340    -3.5540     1.1130 hx         1 7MF       0.111700
     33 H4           1.7150     3.1740    -0.7180 ha         1 7MF       0.149000
     34 H5          -0.7310     3.2560    -0.6740 ha         1 7MF       0.141000
     35 H6          -2.6520     1.5180     2.2160 ha         1 7MF       0.119000
     36 H7          -5.1080     1.7110     2.1560 ha         1 7MF       0.127000
     37 H3           0.9930    -4.8620    -0.7170 hn         1 7MF       0.515000
     38 H2          -0.6460    -4.7990    -0.7250 hn         1 7MF       0.515000
     39 H1           0.2160    -3.9180    -1.8140 hn         1 7MF       0.515000
     40 BR1          3.6980     1.1790    -0.0350 br         1 7MF      -0.072100
@<TRIPOS>BOND
     1     1     3 ar  
     2     1    19 ar  
     3     1    21 1   
     4     2     9 1   
     5     2    22 1   
     6     3     4 ar  
     7     3    23 1   
     8     4    17 ar  
     9     4    24 1   
    10     5     6 1   
    11     5    10 1   
    12     5    25 1   
    13     5    26 1   
    14     6    16 1   
    15     6    27 1   
    16     6    28 1   
    17     7     9 1   
    18     7    15 1   
    19     7    29 1   
    20     7    30 1   
    21     8     9 1   
    22     8    31 1   
    23     9    10 1   
    24    10    20 1   
    25    10    32 1   
    26    11    12 ar  
    27    11    16 ar  
    28    11    40 1   
    29    12    13 ar  
    30    12    33 1   
    31    13    14 ar  
    32    13    34 1   
    33    14    15 ar  
    34    14    17 1   
    35    15    16 ar  
    36    17    18 ar  
    37    18    19 ar  
    38    18    35 1   
    39    19    36 1   
    40    20    37 1   
    41    20    38 1   
    42    20    39 1   
@<TRIPOS>SUBSTRUCTURE
     1 7MF         1 TEMP              0 ****  ****    0 ROOT
