@<TRIPOS>MOLECULE
7MG
   41    43     1     0     0
SMALL
No Charge or Current Charge


@<TRIPOS>ATOM
      1 P            0.0290    -1.5990    -4.0960 p5         1 7MG       1.273900
      2 OP1         -0.3240    -0.7060    -5.2330 o          1 7MG      -0.926167
      3 OP2          0.9220    -2.6810    -4.5920 o          1 7MG      -0.926167
      4 OP3         -1.2000    -2.2130    -3.5260 o          1 7MG      -0.926167
      5 O5           0.8270    -0.7580    -2.9770 os         1 7MG      -0.567400
      6 C5           0.3240     0.4820    -2.4380 c3         1 7MG       0.258600
      7 C4          -0.9260     0.2800    -1.5280 c5         1 7MG       0.160300
      8 O4          -0.5940    -0.4800    -0.3470 os         1 7MG      -0.425000
      9 C3          -1.4860     1.5980    -0.9090 c5         1 7MG       0.083300
     10 O3          -2.2360     2.4160    -1.8360 oh         1 7MG      -0.706000
     11 C2          -2.4170     1.0290     0.2100 c5         1 7MG       0.104300
     12 O2          -3.7310     0.8920    -0.3530 oh         1 7MG      -0.736000
     13 C1          -1.7160    -0.3560     0.5450 c5         1 7MG       0.430500
     14 N9          -1.2620    -0.3440     1.9540 nh         1 7MG      -0.638400
     15 C8          -1.4150    -1.6440     2.6610 c5         1 7MG       0.439000
     16 N7          -0.3020    -1.5340     3.6760 nh         1 7MG      -0.573400
     17 C7           0.3910    -0.3460     3.4450 cc         1 7MG      -0.231200
     18 C6           1.5760     0.1740     4.1450 c          1 7MG       0.613200
     19 O6           2.1700    -0.3570     5.0730 o          1 7MG      -0.602000
     20 N1           1.9590     1.3640     3.6330 ns         1 7MG      -0.438400
     21 C10          1.3140     1.9790     2.6200 cc         1 7MG       0.731800
     22 N2           1.8110     3.1470     2.2500 nv         1 7MG      -1.044200
     23 N3           0.2580     1.5650     1.9690 nd         1 7MG      -0.696300
     24 C9          -0.1760     0.3350     2.4260 cd         1 7MG       0.431600
     25 CM7          0.1630    -2.6540     4.5140 c3         1 7MG       0.157100
     26 H5           0.0580     1.1680    -3.2530 h1         1 7MG       0.002700
     27 H5'          1.1090     0.9730    -1.8480 h1         1 7MG       0.002700
     28 H4          -1.7170    -0.2380    -2.0840 h1         1 7MG       0.059700
     29 H3          -0.6680     2.1790    -0.4600 h1         1 7MG       0.068700
     30 HO3         -1.5990     3.0210    -2.2850 ho         1 7MG       0.484000
     31 H2          -2.4430     1.7010     1.0790 h1         1 7MG       0.049700
     32 HO2         -3.6640     1.4960    -1.1410 ho         1 7MG       0.515000
     33 H1          -2.4220    -1.1770     0.3590 h2         1 7MG       0.063700
     34 H81         -1.2500    -2.4930     1.9850 h2         1 7MG       0.049200
     35 H82         -2.3940    -1.7150     3.1520 h2         1 7MG       0.049200
     36 HN1          2.7490     1.8110     4.0640 hn         1 7MG       0.311500
     37 HN21         1.4170     3.4910     1.3840 hn         1 7MG       0.495000
     38 HN22         2.8100     3.2760     2.3500 hn         1 7MG       0.495000
     39 HM71         0.1930    -2.3530     5.5690 h1         1 7MG       0.035033
     40 HM72        -0.5150    -3.5120     4.4180 h1         1 7MG       0.035033
     41 HM73         1.1690    -2.9680     4.2070 h1         1 7MG       0.035033
@<TRIPOS>BOND
     1     1     2 1   
     2     1     3 1   
     3     1     4 1   
     4     1     5 1   
     5     5     6 1   
     6     6     7 1   
     7     6    26 1   
     8     6    27 1   
     9     7     8 1   
    10     7     9 1   
    11     7    28 1   
    12     8    13 1   
    13     9    10 1   
    14     9    11 1   
    15     9    29 1   
    16    10    30 1   
    17    11    12 1   
    18    11    13 1   
    19    11    31 1   
    20    12    32 1   
    21    13    14 1   
    22    13    33 1   
    23    14    15 1   
    24    14    24 1   
    25    15    16 1   
    26    15    34 1   
    27    15    35 1   
    28    16    17 1   
    29    16    25 1   
    30    17    18 1   
    31    17    24 2   
    32    18    19 2   
    33    18    20 1   
    34    20    21 1   
    35    20    36 1   
    36    21    22 1   
    37    21    23 2   
    38    22    37 1   
    39    22    38 1   
    40    23    24 1   
    41    25    39 1   
    42    25    40 1   
    43    25    41 1   
@<TRIPOS>SUBSTRUCTURE
     1 7MG         1 TEMP              0 ****  ****    0 ROOT
