@<TRIPOS>MOLECULE
7MG
   41    43     1     0     0
SMALL
bcc


@<TRIPOS>ATOM
      1 P            1.2140    -1.3630    -3.8380 p5         1 7MG       1.273900
      2 OP1          2.4480    -0.8450    -3.1070 o          1 7MG      -0.926167
      3 OP2          1.1730    -2.8700    -4.0530 o          1 7MG      -0.926167
      4 OP3          0.8110    -0.5260    -5.0480 o          1 7MG      -0.926167
      5 O5          -0.0680    -1.1720    -2.7240 os         1 7MG      -0.544200
      6 C5          -0.2910     0.1070    -2.2200 c3         1 7MG       0.235400
      7 C4          -1.5300     0.1160    -1.3540 c5         1 7MG       0.137100
      8 O4          -1.3300    -0.7050    -0.2180 os         1 7MG      -0.378600
      9 C3          -1.8550     1.4900    -0.7770 c5         1 7MG       0.060100
     10 O3          -2.6020     2.2470    -1.6970 oh         1 7MG      -0.583800
     11 C2          -2.6440     1.1430     0.4970 c5         1 7MG       0.081100
     12 O2          -4.0170     1.0320     0.2120 oh         1 7MG      -0.613800
     13 C1          -2.1150    -0.2540     0.8690 c5         1 7MG       0.407300
     14 N9          -1.3710    -0.3340     2.0880 nh         1 7MG      -0.638400
     15 C8          -1.2840    -1.6250     2.7670 c5         1 7MG       0.439000
     16 N7          -0.2820    -1.4090     3.8070 nh         1 7MG      -0.573400
     17 C7           0.4930    -0.3290     3.3220 cc         1 7MG      -0.231200
     18 C6           1.6960     0.2160     3.8030 c          1 7MG       0.755700
     19 O6           2.4190    -0.1680     4.7210 o          1 7MG      -0.677500
     20 N1           2.0680     1.3590     3.0660 ns         1 7MG      -0.505400
     21 C10          1.3450     1.9150     2.0670 cc         1 7MG       0.731800
     22 N2           1.8110     3.0400     1.5000 nv         1 7MG      -0.933800
     23 N3           0.1980     1.4170     1.6680 nd         1 7MG      -0.696300
     24 C9          -0.1820     0.3100     2.3090 cd         1 7MG       0.431600
     25 CM7          0.4060    -2.6250     4.1830 c3         1 7MG       0.157100
     26 H5          -0.4440     0.8470    -3.0200 h1         1 7MG       0.002700
     27 H5'          0.5560     0.4670    -1.6170 h1         1 7MG       0.002700
     28 H4          -2.3910    -0.2420    -1.9400 h1         1 7MG       0.059700
     29 H3          -0.9280     1.9960    -0.4930 h1         1 7MG       0.068700
     30 HO3         -2.4710     3.1820    -1.5080 ho         1 7MG       0.385000
     31 H2          -2.4700     1.8670     1.3000 h1         1 7MG       0.049700
     32 HO2         -4.1980     1.6290    -0.5260 ho         1 7MG       0.416000
     33 H1          -2.9800    -0.9140     1.0080 h2         1 7MG       0.063700
     34 H81         -0.9650    -2.4160     2.0630 h2         1 7MG       0.049200
     35 H82         -2.2490    -1.9150     3.1870 h2         1 7MG       0.049200
     36 HN1          2.9390     1.7940     3.3440 hn         1 7MG       0.311500
     37 HN21         1.3620     3.3410     0.6520 hn         1 7MG       0.439800
     38 HN22         2.7760     3.3040     1.6040 hn         1 7MG       0.439800
     39 HM71         1.1350    -2.4170     4.9620 h1         1 7MG       0.035033
     40 HM72        -0.3150    -3.3380     4.5820 h1         1 7MG       0.035033
     41 HM73         0.9250    -3.1010     3.3390 h1         1 7MG       0.035033
@<TRIPOS>BOND
     1     1     2 1   
     2     1     3 1   
     3     1     4 1   
     4     1     5 1   
     5     5     6 1   
     6     6     7 1   
     7     6    26 1   
     8     6    27 1   
     9     7     8 1   
    10     7     9 1   
    11     7    28 1   
    12     8    13 1   
    13     9    10 1   
    14     9    11 1   
    15     9    29 1   
    16    10    30 1   
    17    11    12 1   
    18    11    13 1   
    19    11    31 1   
    20    12    32 1   
    21    13    14 1   
    22    13    33 1   
    23    14    15 1   
    24    14    24 1   
    25    15    16 1   
    26    15    34 1   
    27    15    35 1   
    28    16    17 1   
    29    16    25 1   
    30    17    18 1   
    31    17    24 2   
    32    18    19 2   
    33    18    20 1   
    34    20    21 1   
    35    20    36 1   
    36    21    22 1   
    37    21    23 2   
    38    22    37 1   
    39    22    38 1   
    40    23    24 1   
    41    25    39 1   
    42    25    40 1   
    43    25    41 1   
@<TRIPOS>SUBSTRUCTURE
     1 7MG         1 TEMP              0 ****  ****    0 ROOT
