@<TRIPOS>MOLECULE
7MH
   19    19     1     0     0
SMALL
bcc


@<TRIPOS>ATOM
      1 C7           0.9040     2.7800     0.0470 c3         1 7MH      -0.058900
      2 C5           0.7830     1.2960     0.0020 cc         1 7MH       0.077400
      3 C4           1.8580     0.4480     0.0360 cd         1 7MH      -0.218000
      4 C3           1.6770    -0.9440    -0.0070 cd         1 7MH       0.015800
      5 C6           2.8620    -1.8550     0.0270 c3         1 7MH      -0.062900
      6 C2           0.3940    -1.4340    -0.0840 cc         1 7MH      -0.204200
      7 C1          -0.7240    -0.5880    -0.1200 cs         1 7MH       0.400600
      8 S1          -2.3430    -1.0850    -0.2110 s          1 7MH      -0.644400
      9 N1          -0.4520     0.7500    -0.0760 n          1 7MH      -0.077500
     10 O1          -1.4830     1.6190    -0.1070 oh         1 7MH      -0.414100
     11 H1           0.5050     3.2420    -0.8570 hc         1 7MH       0.067700
     12 H2           0.3680     3.1990     0.8980 hc         1 7MH       0.067700
     13 H3           1.9520     3.0530     0.1360 hc         1 7MH       0.067700
     14 H4           2.8500     0.8730     0.0990 ha         1 7MH       0.156000
     15 H5           3.4670    -1.6680     0.9150 hc         1 7MH       0.056033
     16 H6           2.5640    -2.9010     0.0300 hc         1 7MH       0.056033
     17 H7           3.5030    -1.6840    -0.8390 hc         1 7MH       0.056033
     18 H8           0.2110    -2.4990    -0.1160 ha         1 7MH       0.175000
     19 H9          -2.2770     1.0270    -0.1560 ho         1 7MH       0.483000
@<TRIPOS>BOND
     1     1     2 1   
     2     1    11 1   
     3     1    12 1   
     4     1    13 1   
     5     2     3 2   
     6     2     9 1   
     7     3     4 1   
     8     3    14 1   
     9     4     5 1   
    10     4     6 2   
    11     5    15 1   
    12     5    16 1   
    13     5    17 1   
    14     6     7 1   
    15     6    18 1   
    16     7     8 2   
    17     7     9 1   
    18     9    10 1   
    19    10    19 1   
@<TRIPOS>SUBSTRUCTURE
     1 7MH         1 TEMP              0 ****  ****    0 ROOT
