@<TRIPOS>MOLECULE
7MH
   19    19     1     0     0
SMALL
No Charge or Current Charge


@<TRIPOS>ATOM
      1 C7           0.8580     2.7680     0.1400 c3         1 7MH      -0.058900
      2 C5           0.7250     1.2680    -0.0020 cc         1 7MH       0.077400
      3 C4           1.8300     0.4460     0.1160 cd         1 7MH      -0.268000
      4 C3           1.7030    -0.9750    -0.0270 cd         1 7MH       0.015800
      5 C6           2.9040    -1.8770     0.0970 c3         1 7MH      -0.062900
      6 C2           0.4400    -1.4590    -0.2850 cc         1 7MH      -0.254200
      7 C1          -0.7320    -0.6430    -0.4130 cs         1 7MH       0.333600
      8 S1          -2.2350    -1.3380    -0.7110 s          1 7MH      -0.644400
      9 N1          -0.5440     0.7280    -0.2610 n          1 7MH      -0.010500
     10 O1          -1.6710     1.6180    -0.3770 oh         1 7MH      -0.453100
     11 H1           0.5020     3.2800    -0.7620 hc         1 7MH       0.067700
     12 H2           0.2760     3.1350     0.9940 hc         1 7MH       0.067700
     13 H3           1.9000     3.0690     0.2980 hc         1 7MH       0.067700
     14 H4           2.8070     0.8790     0.3150 ha         1 7MH       0.206000
     15 H5           3.6380    -1.4690     0.8020 hc         1 7MH       0.056033
     16 H6           2.6210    -2.8730     0.4570 hc         1 7MH       0.056033
     17 H7           3.4010    -1.9990    -0.8720 hc         1 7MH       0.056033
     18 H8           0.2800    -2.5250    -0.4050 ha         1 7MH       0.225000
     19 H9          -2.0850     1.5970     0.5150 ho         1 7MH       0.522000
@<TRIPOS>BOND
     1     1     2 1   
     2     1    11 1   
     3     1    12 1   
     4     1    13 1   
     5     2     3 2   
     6     2     9 1   
     7     3     4 1   
     8     3    14 1   
     9     4     5 1   
    10     4     6 2   
    11     5    15 1   
    12     5    16 1   
    13     5    17 1   
    14     6     7 1   
    15     6    18 1   
    16     7     8 2   
    17     7     9 1   
    18     9    10 1   
    19    10    19 1   
@<TRIPOS>SUBSTRUCTURE
     1 7MH         1 TEMP              0 ****  ****    0 ROOT
