@<TRIPOS>MOLECULE
7MI
   68    71     1     0     0
SMALL
abcg2


@<TRIPOS>ATOM
      1 OBE         -4.1260    -2.4490    -0.2250 o          1 7MI      -0.465100
      2 CBD         -3.4470    -1.4640    -0.3020 c          1 7MI       0.566100
      3 CAL         -2.0320    -1.4880    -0.8850 c6         1 7MI      -0.090800
      4 CAO         -2.1970    -1.9870    -2.3350 c3         1 7MI      -0.086100
      5 CAQ         -1.1150    -2.4280    -0.1240 c2         1 7MI      -0.129400
      6 CAR         -1.4660    -3.2300     0.8760 c2         1 7MI      -0.281000
      7 CAM          0.3220    -2.3250    -0.5480 c6         1 7MI      -0.037200
      8 CAH          0.8390    -0.9130    -0.2610 c6         1 7MI      -0.060700
      9 CAC          2.3940    -0.8110    -0.2260 c6         1 7MI      -0.018000
     10 CAI          3.0400    -1.1410    -1.5790 c3         1 7MI      -0.086100
     11 CAD          2.9160    -1.8080     0.8230 c6         1 7MI      -0.066400
     12 CAA          4.3750    -1.5790     1.2120 c6         1 7MI      -0.183400
     13 CAU          4.6330    -0.1720     1.6740 c          1 7MI       0.574100
     14 OAV          5.2010     0.0590     2.7170 o          1 7MI      -0.513100
     15 CAS          4.1740     0.9430     0.7370 c6         1 7MI      -0.120000
     16 CAE          4.1910     2.2760     1.4890 c3         1 7MI      -0.085600
     17 CAZ          5.2130     1.0030    -0.3990 c3         1 7MI      -0.085600
     18 CAB          2.7190     0.6160     0.3120 c6         1 7MI      -0.148700
     19 CAX          2.0540     1.6120    -0.5990 c          1 7MI       0.545100
     20 OAT          2.6200     2.4410    -1.2680 o          1 7MI      -0.500100
     21 CAF          0.5290     1.5220    -0.6000 c6         1 7MI       0.072300
     22 OAY         -0.0430     2.5510    -1.3340 oh         1 7MI      -0.621000
     23 CAG          0.0820     0.1360    -1.1310 c6         1 7MI       0.013000
     24 CAW          0.3840     0.0250    -2.6330 c3         1 7MI      -0.086100
     25 CAK         -1.4310    -0.0440    -0.7860 c6         1 7MI      -0.147700
     26 CBA         -2.4350     0.8550    -1.4800 c          1 7MI       0.676100
     27 OBC         -2.3030     1.5060    -2.4720 o          1 7MI      -0.442000
     28 OBB         -3.6650     0.8400    -0.9240 os         1 7MI      -0.437100
     29 CAP         -4.0190    -0.0900     0.0860 c6         1 7MI       0.044000
     30 CAN         -5.5400    -0.1080     0.1500 c3         1 7MI      -0.080100
     31 CAJ         -3.5010     0.2940     1.4720 c          1 7MI       0.569100
     32 OBF         -3.4100    -0.5190     2.3540 o          1 7MI      -0.474000
     33 OBG         -3.2310     1.5740     1.5750 os         1 7MI      -0.416100
     34 CBH         -2.7810     2.0540     2.8510 c3         1 7MI       0.146900
     35 H1          -2.8250    -1.3250    -2.9340 hc         1 7MI       0.054033
     36 H2          -1.2420    -2.0780    -2.8430 hc         1 7MI       0.054033
     37 H3          -2.6620    -2.9710    -2.3260 hc         1 7MI       0.054033
     38 H5          -2.4690    -3.3220     1.2650 ha         1 7MI       0.178000
     39 H6          -0.7160    -3.8450     1.3570 ha         1 7MI       0.178000
     40 H8           0.8920    -3.0620     0.0140 hc         1 7MI       0.055200
     41 H9           0.4450    -2.5900    -1.6010 hc         1 7MI       0.055200
     42 H10          0.5350    -0.7070     0.7760 hc         1 7MI       0.045700
     43 H11          3.0770    -0.2990    -2.2650 hc         1 7MI       0.042033
     44 H12          4.0650    -1.4890    -1.4600 hc         1 7MI       0.042033
     45 H13          2.5050    -1.9500    -2.0750 hc         1 7MI       0.042033
     46 H14          2.2950    -1.7500     1.7230 hc         1 7MI       0.049700
     47 H15          2.8310    -2.8310     0.4510 hc         1 7MI       0.049700
     48 H16          4.6650    -2.2750     1.9990 hc         1 7MI       0.070200
     49 H17          5.0310    -1.7840     0.3600 hc         1 7MI       0.070200
     50 H18          3.5120     2.2650     2.3430 hc         1 7MI       0.046867
     51 H19          5.1910     2.5010     1.8600 hc         1 7MI       0.046867
     52 H20          3.8960     3.0960     0.8370 hc         1 7MI       0.046867
     53 H21          5.0180     1.8450    -1.0570 hc         1 7MI       0.046867
     54 H22          6.2090     1.1410     0.0260 hc         1 7MI       0.046867
     55 H23          5.2390     0.1050    -1.0090 hc         1 7MI       0.046867
     56 H24          2.1440     0.6740     1.2480 hc         1 7MI       0.060700
     57 H25          0.2310     1.5770     0.4640 h1         1 7MI       0.032700
     58 H26          0.3590     3.3840    -1.0650 ho         1 7MI       0.459000
     59 H27          1.2840     0.5720    -2.9080 hc         1 7MI       0.050700
     60 H28          0.5390    -1.0040    -2.9480 hc         1 7MI       0.050700
     61 H29         -0.4200     0.4300    -3.2380 hc         1 7MI       0.050700
     62 H30         -1.4680     0.2100     0.2790 hc         1 7MI       0.063700
     63 H31         -5.9560    -0.4120    -0.8090 hc         1 7MI       0.067033
     64 H32         -5.8880    -0.7990     0.9140 hc         1 7MI       0.067033
     65 H33         -5.9160     0.8860     0.3910 hc         1 7MI       0.067033
     66 H34         -3.5490     1.9190     3.6100 h1         1 7MI       0.054033
     67 H35         -1.8690     1.5440     3.1590 h1         1 7MI       0.054033
     68 H36         -2.5810     3.1110     2.7130 h1         1 7MI       0.054033
@<TRIPOS>BOND
     1     1     2 2   
     2     2     3 1   
     3     2    29 1   
     4     3     4 1   
     5     3     5 1   
     6     3    25 1   
     7     4    35 1   
     8     4    36 1   
     9     4    37 1   
    10     5     6 2   
    11     5     7 1   
    12     6    38 1   
    13     6    39 1   
    14     7     8 1   
    15     7    40 1   
    16     7    41 1   
    17     8     9 1   
    18     8    23 1   
    19     8    42 1   
    20     9    10 1   
    21     9    11 1   
    22     9    18 1   
    23    10    43 1   
    24    10    44 1   
    25    10    45 1   
    26    11    12 1   
    27    11    46 1   
    28    11    47 1   
    29    12    13 1   
    30    12    48 1   
    31    12    49 1   
    32    13    14 2   
    33    13    15 1   
    34    15    16 1   
    35    15    17 1   
    36    15    18 1   
    37    16    50 1   
    38    16    51 1   
    39    16    52 1   
    40    17    53 1   
    41    17    54 1   
    42    17    55 1   
    43    18    19 1   
    44    18    56 1   
    45    19    20 2   
    46    19    21 1   
    47    21    22 1   
    48    21    23 1   
    49    21    57 1   
    50    22    58 1   
    51    23    24 1   
    52    23    25 1   
    53    24    59 1   
    54    24    60 1   
    55    24    61 1   
    56    25    26 1   
    57    25    62 1   
    58    26    27 2   
    59    26    28 1   
    60    28    29 1   
    61    29    30 1   
    62    29    31 1   
    63    30    63 1   
    64    30    64 1   
    65    30    65 1   
    66    31    32 2   
    67    31    33 1   
    68    33    34 1   
    69    34    66 1   
    70    34    67 1   
    71    34    68 1   
@<TRIPOS>SUBSTRUCTURE
     1 7MI         1 TEMP              0 ****  ****    0 ROOT
