@<TRIPOS>MOLECULE
7MI
   68    71     1     0     0
SMALL
No Charge or Current Charge


@<TRIPOS>ATOM
      1 OBE         -4.3520    -2.3160    -0.4490 o          1 7MI      -0.465100
      2 CBD         -3.5650    -1.3760    -0.3620 c          1 7MI       0.566100
      3 CAL         -2.0970    -1.4710    -0.9470 c6         1 7MI      -0.090800
      4 CAO         -2.2610    -2.0340    -2.4010 c3         1 7MI      -0.086100
      5 CAQ         -1.1940    -2.4500    -0.1650 c2         1 7MI      -0.129400
      6 CAR         -1.6300    -3.3160     0.7710 c2         1 7MI      -0.281000
      7 CAM          0.2930    -2.3790    -0.5050 c6         1 7MI      -0.037200
      8 CAH          0.8670    -0.9420    -0.2740 c6         1 7MI      -0.060700
      9 CAC          2.4640    -0.8720    -0.2000 c6         1 7MI      -0.018000
     10 CAI          3.1390    -1.3050    -1.5490 c3         1 7MI      -0.086100
     11 CAD          2.9740    -1.7940     0.9650 c6         1 7MI      -0.066400
     12 CAA          4.4570    -1.5860     1.3700 c6         1 7MI      -0.183400
     13 CAU          4.8400    -0.1330     1.6810 c          1 7MI       0.574100
     14 OAV          5.5640     0.1160     2.6390 o          1 7MI      -0.513100
     15 CAS          4.3230     0.9740     0.7060 c6         1 7MI      -0.120000
     16 CAE          4.3580     2.3550     1.4540 c3         1 7MI      -0.085600
     17 CAZ          5.3680     1.0560    -0.4570 c3         1 7MI      -0.085600
     18 CAB          2.8420     0.6380     0.1920 c6         1 7MI      -0.148700
     19 CAX          2.1380     1.7200    -0.6910 c          1 7MI       0.545100
     20 OAT          2.7260     2.6390    -1.2530 o          1 7MI      -0.500100
     21 CAF          0.5960     1.5770    -0.8000 c6         1 7MI       0.072300
     22 OAY          0.0800     2.6110    -1.6650 oh         1 7MI      -0.621000
     23 CAG          0.1330     0.1200    -1.2130 c6         1 7MI       0.013000
     24 CAW          0.4610    -0.0870    -2.7410 c3         1 7MI      -0.086100
     25 CAK         -1.4310    -0.0360    -0.9370 c6         1 7MI      -0.147700
     26 CBA         -2.4210     1.0460    -1.4680 c          1 7MI       0.676100
     27 OBC         -2.4000     1.4270    -2.6280 o          1 7MI      -0.442000
     28 OBB         -3.6280     1.0650    -0.8000 os         1 7MI      -0.437100
     29 CAP         -4.0240     0.0260     0.1560 c6         1 7MI       0.044000
     30 CAN         -5.5860     0.1000     0.1790 c3         1 7MI      -0.080100
     31 CAJ         -3.5200     0.3000     1.6020 c          1 7MI       0.569100
     32 OBF         -2.7600    -0.4520     2.1960 o          1 7MI      -0.474000
     33 OBG         -3.9010     1.5240     2.0950 os         1 7MI      -0.416100
     34 CBH         -3.4430     1.9040     3.4070 c3         1 7MI       0.146900
     35 H1          -2.8910    -1.3810    -3.0170 hc         1 7MI       0.054033
     36 H2          -1.3110    -2.1570    -2.9240 hc         1 7MI       0.054033
     37 H3          -2.7310    -3.0250    -2.3920 hc         1 7MI       0.054033
     38 H5          -2.6730    -3.4130     1.0660 ha         1 7MI       0.178000
     39 H6          -0.9430    -3.9800     1.2960 ha         1 7MI       0.178000
     40 H8           0.8180    -3.1080     0.1200 hc         1 7MI       0.055200
     41 H9           0.4590    -2.7260    -1.5300 hc         1 7MI       0.055200
     42 H10          0.5370    -0.6970     0.7460 hc         1 7MI       0.045700
     43 H11          3.1630    -0.4920    -2.2790 hc         1 7MI       0.042033
     44 H12          4.1760    -1.6240    -1.4260 hc         1 7MI       0.042033
     45 H13          2.6290    -2.1570    -2.0090 hc         1 7MI       0.042033
     46 H14          2.3520    -1.6450     1.8590 hc         1 7MI       0.049700
     47 H15          2.8630    -2.8520     0.6930 hc         1 7MI       0.049700
     48 H16          4.7450    -2.2290     2.2120 hc         1 7MI       0.070200
     49 H17          5.0770    -1.8840     0.5180 hc         1 7MI       0.070200
     50 H18          3.6770     2.3590     2.3130 hc         1 7MI       0.046867
     51 H19          5.3610     2.5880     1.8330 hc         1 7MI       0.046867
     52 H20          4.0740     3.1930     0.8080 hc         1 7MI       0.046867
     53 H21          5.1140     1.8200    -1.1990 hc         1 7MI       0.046867
     54 H22          6.3630     1.3120    -0.0720 hc         1 7MI       0.046867
     55 H23          5.4800     0.1080    -0.9900 hc         1 7MI       0.046867
     56 H24          2.2360     0.7310     1.1050 hc         1 7MI       0.060700
     57 H25          0.2370     1.7610     0.2230 h1         1 7MI       0.032700
     58 H26          0.8540     3.1750    -1.9000 ho         1 7MI       0.459000
     59 H27          1.3510     0.4700    -3.0500 hc         1 7MI       0.050700
     60 H28          0.6410    -1.1300    -3.0110 hc         1 7MI       0.050700
     61 H29         -0.3420     0.2680    -3.3920 hc         1 7MI       0.050700
     62 H30         -1.4520     0.1960     0.1300 hc         1 7MI       0.063700
     63 H31         -6.0110    -0.1300    -0.8060 hc         1 7MI       0.067033
     64 H32         -6.0130    -0.6100     0.8990 hc         1 7MI       0.067033
     65 H33         -5.9390     1.1010     0.4580 hc         1 7MI       0.067033
     66 H34         -3.7920     1.1910     4.1650 h1         1 7MI       0.054033
     67 H35         -2.3460     1.9410     3.4430 h1         1 7MI       0.054033
     68 H36         -3.8260     2.8970     3.6720 h1         1 7MI       0.054033
@<TRIPOS>BOND
     1     1     2 2   
     2     2     3 1   
     3     2    29 1   
     4     3     4 1   
     5     3     5 1   
     6     3    25 1   
     7     4    35 1   
     8     4    36 1   
     9     4    37 1   
    10     5     6 2   
    11     5     7 1   
    12     6    38 1   
    13     6    39 1   
    14     7     8 1   
    15     7    40 1   
    16     7    41 1   
    17     8     9 1   
    18     8    23 1   
    19     8    42 1   
    20     9    10 1   
    21     9    11 1   
    22     9    18 1   
    23    10    43 1   
    24    10    44 1   
    25    10    45 1   
    26    11    12 1   
    27    11    46 1   
    28    11    47 1   
    29    12    13 1   
    30    12    48 1   
    31    12    49 1   
    32    13    14 2   
    33    13    15 1   
    34    15    16 1   
    35    15    17 1   
    36    15    18 1   
    37    16    50 1   
    38    16    51 1   
    39    16    52 1   
    40    17    53 1   
    41    17    54 1   
    42    17    55 1   
    43    18    19 1   
    44    18    56 1   
    45    19    20 2   
    46    19    21 1   
    47    21    22 1   
    48    21    23 1   
    49    21    57 1   
    50    22    58 1   
    51    23    24 1   
    52    23    25 1   
    53    24    59 1   
    54    24    60 1   
    55    24    61 1   
    56    25    26 1   
    57    25    62 1   
    58    26    27 2   
    59    26    28 1   
    60    28    29 1   
    61    29    30 1   
    62    29    31 1   
    63    30    63 1   
    64    30    64 1   
    65    30    65 1   
    66    31    32 2   
    67    31    33 1   
    68    33    34 1   
    69    34    66 1   
    70    34    67 1   
    71    34    68 1   
@<TRIPOS>SUBSTRUCTURE
     1 7MI         1 TEMP              0 ****  ****    0 ROOT
