@<TRIPOS>MOLECULE
7MJ
   47    50     1     0     0
SMALL
abcg2


@<TRIPOS>ATOM
      1 C23         -6.0880    -2.7260     0.0130 ca         1 7MJ      -0.108000
      2 C22         -5.4140    -2.4070    -1.1590 ca         1 7MJ      -0.113000
      3 C24         -6.3770    -1.7260     0.9330 ca         1 7MJ      -0.113000
      4 C5           6.1140    -0.8630     1.6050 ca         1 7MJ      -0.095000
      5 C6           5.6970    -2.1830     1.5080 ca         1 7MJ      -0.110000
      6 C21         -5.0320    -1.0950    -1.4080 ca         1 7MJ      -0.096000
      7 C25         -5.9940    -0.4160     0.6800 ca         1 7MJ      -0.096000
      8 C4           5.4840     0.1240     0.8610 ca         1 7MJ      -0.118000
      9 C7           4.6520    -2.5190     0.6590 ca         1 7MJ      -0.101000
     10 C20         -5.3200    -0.0880    -0.4930 ca         1 7MJ      -0.080300
     11 C3           4.4390    -0.2030     0.0050 ca         1 7MJ      -0.058000
     12 C8           4.0380    -1.5370    -0.1020 ca         1 7MJ       0.071100
     13 C15         -1.6120     1.5780     0.5670 cc         1 7MJ       0.361000
     14 C18         -3.6130     1.6480    -0.0300 cd         1 7MJ       0.536300
     15 C27          2.4690     0.8810    -0.8990 c          1 7MJ       0.558000
     16 C10          1.7460    -1.5360    -0.5940 c3         1 7MJ       0.159600
     17 C11          1.6510    -0.1040    -0.0550 c3         1 7MJ      -0.004300
     18 C19         -4.8820     1.3330    -0.7470 c3         1 7MJ      -0.047400
     19 N16         -2.2500     2.5070     1.2770 na         1 7MJ      -0.145700
     20 N17         -3.5250     2.5650     0.9130 nc         1 7MJ      -0.522800
     21 N26         -2.4480     1.0130    -0.2740 nd         1 7MJ      -0.690000
     22 N2           3.8180     0.7800    -0.7910 n          1 7MJ      -0.220400
     23 N12          0.2680     0.2710    -0.0230 ns         1 7MJ      -0.462900
     24 O9           3.0610    -1.8660    -0.9930 os         1 7MJ      -0.343100
     25 H1          -6.3870    -3.7480     0.2080 ha         1 7MJ       0.111000
     26 H2          -5.1850    -3.1810    -1.8800 ha         1 7MJ       0.111500
     27 H3          -6.9050    -1.9660     1.8470 ha         1 7MJ       0.111500
     28 H4           6.9280    -0.5960     2.2650 ha         1 7MJ       0.121000
     29 H5           6.1820    -2.9520     2.0940 ha         1 7MJ       0.121000
     30 H6          -4.5070    -0.8510    -2.3240 ha         1 7MJ       0.115000
     31 H7          -6.2220     0.3600     1.4010 ha         1 7MJ       0.115000
     32 H8           5.8050     1.1540     0.9490 ha         1 7MJ       0.126000
     33 H9           4.3230    -3.5460     0.5650 ha         1 7MJ       0.129000
     34 H10          1.3770    -2.2290     0.1700 h1         1 7MJ       0.064700
     35 H11          1.1250    -1.6440    -1.4840 h1         1 7MJ       0.064700
     36 H12          2.0330    -0.0820     0.9700 h1         1 7MJ       0.099700
     37 H13          4.2220     2.0010    -2.4450 h1         1 7MJ       0.049700
     38 H14          4.7590     2.6760    -0.9010 h1         1 7MJ       0.049700
     39 H15          5.6380     1.3280    -1.6420 h1         1 7MJ       0.049700
     40 H16         -4.7340     1.4910    -1.8170 hc         1 7MJ       0.069200
     41 H17         -5.6510     2.0350    -0.4210 hc         1 7MJ       0.069200
     42 H18         -1.8830     3.1130     1.9980 hn         1 7MJ       0.400000
     43 H19         -0.3600    -0.1060    -0.7180 hn         1 7MJ       0.352500
     44 C13         -0.1720     1.2790     0.7420 c          1 7MJ       0.546600
     45 O28          1.9280     1.7220    -1.5900 o          1 7MJ      -0.532000
     46 C1           4.6540     1.7560    -1.4780 c3         1 7MJ       0.091300
     47 O14          0.5070     1.9080     1.5350 o          1 7MJ      -0.594100
@<TRIPOS>BOND
     1     1     2 ar  
     2     1     3 ar  
     3     1    25 1   
     4     2     6 ar  
     5     2    26 1   
     6     3     7 ar  
     7     3    27 1   
     8     4     5 ar  
     9     4     8 ar  
    10     4    28 1   
    11     5     9 ar  
    12     5    29 1   
    13     6    10 ar  
    14     6    30 1   
    15     7    10 ar  
    16     7    31 1   
    17     8    11 ar  
    18     8    32 1   
    19     9    12 ar  
    20     9    33 1   
    21    10    18 1   
    22    11    12 ar  
    23    11    22 1   
    24    12    24 1   
    25    13    19 1   
    26    13    21 2   
    27    13    44 1   
    28    14    18 1   
    29    14    20 2   
    30    14    21 1   
    31    15    17 1   
    32    15    22 1   
    33    15    45 2   
    34    16    17 1   
    35    16    24 1   
    36    16    34 1   
    37    16    35 1   
    38    17    23 1   
    39    17    36 1   
    40    18    40 1   
    41    18    41 1   
    42    19    20 1   
    43    19    42 1   
    44    22    46 1   
    45    23    43 1   
    46    23    44 1   
    47    37    46 1   
    48    38    46 1   
    49    39    46 1   
    50    44    47 2   
@<TRIPOS>SUBSTRUCTURE
     1 7MJ         1 TEMP              0 ****  ****    0 ROOT
