@<TRIPOS>MOLECULE
7MJ
   47    50     1     0     0
SMALL
No Charge or Current Charge


@<TRIPOS>ATOM
      1 C23         -6.9660    -1.9510    -1.3810 ca         1 7MJ      -0.108000
      2 C22         -5.7930    -1.5920    -2.0650 ca         1 7MJ      -0.113000
      3 C24         -7.4050    -1.1820    -0.2890 ca         1 7MJ      -0.113000
      4 C5           6.7710     0.3320     0.7870 ca         1 7MJ      -0.095000
      5 C6           6.5790    -0.7810     1.6220 ca         1 7MJ      -0.110000
      6 C21         -5.0590    -0.4630    -1.6590 ca         1 7MJ      -0.096000
      7 C25         -6.6710    -0.0530     0.1170 ca         1 7MJ      -0.096000
      8 C4           5.8520     0.6130    -0.2390 ca         1 7MJ      -0.118000
      9 C7           5.4500    -1.5970     1.4460 ca         1 7MJ      -0.101000
     10 C20         -5.4950     0.3130    -0.5680 ca         1 7MJ      -0.080300
     11 C3           4.7520    -0.2420    -0.4740 ca         1 7MJ      -0.058000
     12 C8           4.5270    -1.3030     0.4300 ca         1 7MJ       0.071100
     13 C15         -1.6410     0.6800     1.5790 cc         1 7MJ       0.361000
     14 C18         -3.5880     1.2140     0.8440 cd         1 7MJ       0.536300
     15 C27          2.3420     0.0960    -1.1540 c          1 7MJ       0.558000
     16 C10          2.1420    -1.6780     0.7150 c3         1 7MJ       0.159600
     17 C11          1.8840    -0.2070     0.2990 c3         1 7MJ      -0.004300
     18 C19         -4.6950     1.5340    -0.1260 c3         1 7MJ      -0.047400
     19 N16         -2.5300     0.8760     2.6100 na         1 7MJ      -0.145700
     20 N17         -3.7730     1.2170     2.1540 nc         1 7MJ      -0.522800
     21 N26         -2.3060     0.8960     0.4440 nd         1 7MJ      -0.690000
     22 N2           3.7350     0.1410    -1.4240 n          1 7MJ      -0.220400
     23 N12          0.4580     0.1690     0.4850 ns         1 7MJ      -0.462900
     24 O9           3.4340    -2.1130     0.2610 os         1 7MJ      -0.343100
     25 H1          -7.5340    -2.8250    -1.6940 ha         1 7MJ       0.111000
     26 H2          -5.4520    -2.1880    -2.9090 ha         1 7MJ       0.111500
     27 H3          -8.3120    -1.4600     0.2430 ha         1 7MJ       0.111500
     28 H4           7.6290     0.9840     0.9420 ha         1 7MJ       0.121000
     29 H5           7.2920    -0.9990     2.4150 ha         1 7MJ       0.121000
     30 H6          -4.1500    -0.1940    -2.1920 ha         1 7MJ       0.115000
     31 H7          -7.0160     0.5340     0.9650 ha         1 7MJ       0.115000
     32 H8           6.0020     1.4980    -0.8530 ha         1 7MJ       0.126000
     33 H9           5.2830    -2.4480     2.1020 ha         1 7MJ       0.129000
     34 H10          2.0760    -1.7600     1.8070 h1         1 7MJ       0.064700
     35 H11          1.3640    -2.3220     0.2840 h1         1 7MJ       0.064700
     36 H12          2.4870     0.4400     0.9500 h1         1 7MJ       0.099700
     37 H13          3.6000     0.1590    -3.5450 h1         1 7MJ       0.049700
     38 H14          4.0090     1.7330    -2.7970 h1         1 7MJ       0.049700
     39 H15          5.2360     0.4350    -2.9050 h1         1 7MJ       0.049700
     40 H16         -4.2660     2.0310    -1.0030 hc         1 7MJ       0.069200
     41 H17         -5.3640     2.2760     0.3240 hc         1 7MJ       0.069200
     42 H18         -2.3110     0.7840     3.6000 hn         1 7MJ       0.400000
     43 H19         -0.1070     0.3600    -0.3400 hn         1 7MJ       0.352500
     44 C13         -0.1910     0.2940     1.7010 c          1 7MJ       0.546600
     45 O28          1.5170     0.3470    -2.0290 o          1 7MJ      -0.532000
     46 C1           4.1710     0.6490    -2.7460 c3         1 7MJ       0.091300
     47 O14          0.3920     0.1030     2.7650 o          1 7MJ      -0.594100
@<TRIPOS>BOND
     1     1     2 ar  
     2     1     3 ar  
     3     1    25 1   
     4     2     6 ar  
     5     2    26 1   
     6     3     7 ar  
     7     3    27 1   
     8     4     5 ar  
     9     4     8 ar  
    10     4    28 1   
    11     5     9 ar  
    12     5    29 1   
    13     6    10 ar  
    14     6    30 1   
    15     7    10 ar  
    16     7    31 1   
    17     8    11 ar  
    18     8    32 1   
    19     9    12 ar  
    20     9    33 1   
    21    10    18 1   
    22    11    12 ar  
    23    11    22 1   
    24    12    24 1   
    25    13    19 1   
    26    13    21 2   
    27    13    44 1   
    28    14    18 1   
    29    14    20 2   
    30    14    21 1   
    31    15    17 1   
    32    15    22 1   
    33    15    45 2   
    34    16    17 1   
    35    16    24 1   
    36    16    34 1   
    37    16    35 1   
    38    17    23 1   
    39    17    36 1   
    40    18    40 1   
    41    18    41 1   
    42    19    20 1   
    43    19    42 1   
    44    22    46 1   
    45    23    43 1   
    46    23    44 1   
    47    37    46 1   
    48    38    46 1   
    49    39    46 1   
    50    44    47 2   
@<TRIPOS>SUBSTRUCTURE
     1 7MJ         1 TEMP              0 ****  ****    0 ROOT
