@<TRIPOS>MOLECULE
7MK
   30    31     1     0     0
SMALL
No Charge or Current Charge


@<TRIPOS>ATOM
      1 C1           2.0530    -1.4890    -0.1470 ca         1 7MK      -0.099000
      2 C10         -0.9990     1.8210     0.1790 c3         1 7MK      -0.100400
      3 C11         -2.0270     0.7240    -0.1870 c3         1 7MK       0.119300
      4 C2           3.5490     0.3210     0.4740 ca         1 7MK      -0.080000
      5 C3           3.2970    -1.0510     0.3340 ca         1 7MK      -0.089000
      6 C4           1.0480    -0.5600    -0.4910 ca         1 7MK      -0.122300
      7 C5           1.3030     0.8240    -0.3540 ca         1 7MK      -0.086300
      8 C6           2.5570     1.2530     0.1300 ca         1 7MK      -0.093000
      9 C7          -0.2960    -1.0760    -1.0090 c3         1 7MK      -0.082100
     10 C8           0.2540     1.8700    -0.7230 c3         1 7MK      -0.022100
     11 C9          -1.5020    -0.7570    -0.0870 c3         1 7MK       0.400000
     12 N1          -3.2530     0.9030     0.6770 nz         1 7MK      -0.967000
     13 O1          -2.5730    -1.6200    -0.4140 oh         1 7MK      -0.699500
     14 O2          -1.1870    -1.0640     1.2560 oh         1 7MK      -0.699500
     15 H1           1.8760    -2.5580    -0.2530 ha         1 7MK       0.122000
     16 H9          -1.5020     2.7930     0.1030 hc         1 7MK       0.067700
     17 H10         -0.6900     1.7160     1.2260 hc         1 7MK       0.067700
     18 H11         -2.3240     0.8810    -1.2290 hx         1 7MK       0.112700
     19 H2           4.5120     0.6630     0.8470 ha         1 7MK       0.136000
     20 H3           4.0660    -1.7750     0.5970 ha         1 7MK       0.136000
     21 H4           2.7680     2.3140     0.2430 ha         1 7MK       0.125000
     22 H6          -0.4960    -0.6630    -2.0060 hc         1 7MK       0.080700
     23 H5          -0.2360    -2.1600    -1.1610 hc         1 7MK       0.080700
     24 H8          -0.0410     1.7650    -1.7750 hc         1 7MK       0.071200
     25 H7           0.6880     2.8740    -0.6440 hc         1 7MK       0.071200
     26 H15         -3.7120     1.8200     0.5930 hn         1 7MK       0.515333
     27 H16         -3.9620     0.1880     0.4550 hn         1 7MK       0.515333
     28 H12         -2.1860    -2.5170    -0.4970 ho         1 7MK       0.502000
     29 H13         -0.2740    -1.4220     1.2350 ho         1 7MK       0.502000
     30 H14         -3.0390     0.7520     1.6730 hn         1 7MK       0.515333
@<TRIPOS>BOND
     1     1     5 ar  
     2     1     6 ar  
     3     1    15 1   
     4     2     3 1   
     5     2    10 1   
     6     2    16 1   
     7     2    17 1   
     8     3    11 1   
     9     3    12 1   
    10     3    18 1   
    11     4     5 ar  
    12     4     8 ar  
    13     4    19 1   
    14     5    20 1   
    15     6     7 ar  
    16     6     9 1   
    17     7     8 ar  
    18     7    10 1   
    19     8    21 1   
    20     9    11 1   
    21     9    22 1   
    22     9    23 1   
    23    10    24 1   
    24    10    25 1   
    25    11    13 1   
    26    11    14 1   
    27    12    26 1   
    28    12    27 1   
    29    12    30 1   
    30    13    28 1   
    31    14    29 1   
@<TRIPOS>SUBSTRUCTURE
     1 7MK         1 TEMP              0 ****  ****    0 ROOT
