@<TRIPOS>MOLECULE
7MK
   30    31     1     0     0
SMALL
abcg2


@<TRIPOS>ATOM
      1 C1           2.0270    -1.4600    -0.1440 ca         1 7MK      -0.099000
      2 C10         -0.9830     1.7650     0.1920 c3         1 7MK      -0.100400
      3 C11         -1.9750     0.6880    -0.2100 c3         1 7MK       0.119300
      4 C2           3.5190     0.3160     0.4630 ca         1 7MK      -0.080000
      5 C3           3.2610    -1.0400     0.3390 ca         1 7MK      -0.089000
      6 C4           1.0460    -0.5410    -0.5050 ca         1 7MK      -0.122300
      7 C5           1.3040     0.8280    -0.3720 ca         1 7MK      -0.086300
      8 C6           2.5420     1.2380     0.1090 ca         1 7MK      -0.093000
      9 C7          -0.2790    -1.0300    -1.0200 c3         1 7MK      -0.082100
     10 C8           0.2500     1.8420    -0.7130 c3         1 7MK      -0.022100
     11 C9          -1.4750    -0.7620    -0.0920 c3         1 7MK       0.400000
     12 N1          -3.1870     0.8200     0.6520 nz         1 7MK      -0.967000
     13 O1          -2.5720    -1.5300    -0.4850 oh         1 7MK      -0.699500
     14 O2          -1.1850    -1.0290     1.2480 oh         1 7MK      -0.699500
     15 H1           1.8250    -2.5200    -0.2470 ha         1 7MK       0.122000
     16 H9          -1.5010     2.7260     0.1410 hc         1 7MK       0.067700
     17 H10         -0.6740     1.6320     1.2320 hc         1 7MK       0.067700
     18 H11         -2.3180     0.8680    -1.2300 hx         1 7MK       0.112700
     19 H2           4.4750     0.6590     0.8360 ha         1 7MK       0.136000
     20 H3           4.0100    -1.7690     0.6160 ha         1 7MK       0.136000
     21 H4           2.7450     2.2980     0.2120 ha         1 7MK       0.125000
     22 H6          -0.5010    -0.6000    -2.0020 hc         1 7MK       0.080700
     23 H5          -0.2190    -2.1110    -1.1720 hc         1 7MK       0.080700
     24 H8          -0.0560     1.7430    -1.7600 hc         1 7MK       0.071200
     25 H7           0.6760     2.8420    -0.6200 hc         1 7MK       0.071200
     26 H15         -3.6020     1.7480     0.5700 hn         1 7MK       0.515333
     27 H16         -3.9090     0.1450     0.3950 hn         1 7MK       0.515333
     28 H12         -2.3590    -2.4680    -0.4000 ho         1 7MK       0.502000
     29 H13         -0.2440    -1.1990     1.3730 ho         1 7MK       0.502000
     30 H14         -2.9700     0.6710     1.6390 hn         1 7MK       0.515333
@<TRIPOS>BOND
     1     1     5 ar  
     2     1     6 ar  
     3     1    15 1   
     4     2     3 1   
     5     2    10 1   
     6     2    16 1   
     7     2    17 1   
     8     3    11 1   
     9     3    12 1   
    10     3    18 1   
    11     4     5 ar  
    12     4     8 ar  
    13     4    19 1   
    14     5    20 1   
    15     6     7 ar  
    16     6     9 1   
    17     7     8 ar  
    18     7    10 1   
    19     8    21 1   
    20     9    11 1   
    21     9    22 1   
    22     9    23 1   
    23    10    24 1   
    24    10    25 1   
    25    11    13 1   
    26    11    14 1   
    27    12    26 1   
    28    12    27 1   
    29    12    30 1   
    30    13    28 1   
    31    14    29 1   
@<TRIPOS>SUBSTRUCTURE
     1 7MK         1 TEMP              0 ****  ****    0 ROOT
