@<TRIPOS>MOLECULE
7ML
   40    42     1     0     0
SMALL
abcg2


@<TRIPOS>ATOM
      1 C1          -2.7330     0.0540     1.1480 ca         1 7ML      -0.108500
      2 C10          0.2810    -0.8050    -0.4680 ca         1 7ML      -0.085300
      3 C11          1.3640    -1.6930    -0.4430 ca         1 7ML      -0.087300
      4 C12          1.1760    -3.0010    -0.0140 ca         1 7ML      -0.093000
      5 C13          0.5050     0.6160    -0.9080 c3         1 7ML      -0.083100
      6 C14          2.7390    -1.2360    -0.8400 c3         1 7ML      -0.020100
      7 C15          1.3500     1.4600     0.0620 c3         1 7ML       0.396000
      8 C16          3.3410    -0.2040     0.1170 c3         1 7ML      -0.096400
      9 C17          2.8530     1.2130    -0.1260 c3         1 7ML       0.143300
     10 C2          -3.8650     0.8590     1.1600 ca         1 7ML      -0.105000
     11 C3          -4.4550     1.2500    -0.0340 ca         1 7ML      -0.095000
     12 C4          -3.9070     0.8310    -1.2410 ca         1 7ML      -0.105000
     13 C5          -2.7750     0.0300    -1.2520 ca         1 7ML      -0.108500
     14 C6          -2.1740    -0.3660    -0.0580 cp         1 7ML      -0.075000
     15 C7          -0.9810    -1.2510    -0.0560 cp         1 7ML      -0.021000
     16 C8          -0.0730    -3.4400     0.4010 ca         1 7ML      -0.085000
     17 C9          -1.1440    -2.5650     0.3810 ca         1 7ML      -0.082000
     18 N1           3.5940     2.1360     0.7870 nz         1 7ML      -0.968000
     19 O2           1.0640     1.1800     1.3950 oh         1 7ML      -0.704500
     20 H1          -2.2820    -0.2520     2.0840 ha         1 7ML       0.117000
     21 H8           2.0180    -3.6810     0.0010 ha         1 7ML       0.123000
     22 H10          0.9700     0.6460    -1.8970 hc         1 7ML       0.080200
     23 H9          -0.4540     1.1240    -1.0280 hc         1 7ML       0.080200
     24 H12          3.4040    -2.0990    -0.8590 hc         1 7ML       0.068200
     25 H11          2.7350    -0.8360    -1.8600 hc         1 7ML       0.068200
     26 H13          3.1570    -0.5040     1.1510 hc         1 7ML       0.069200
     27 H14          4.4250    -0.2050    -0.0240 hc         1 7ML       0.069200
     28 H15          3.1270     1.5220    -1.1360 hx         1 7ML       0.110700
     29 H2          -4.2870     1.1770     2.1050 ha         1 7ML       0.126000
     30 H3          -5.3380     1.8750    -0.0260 ha         1 7ML       0.128000
     31 H4          -4.3660     1.1240    -2.1760 ha         1 7ML       0.126000
     32 H5          -2.3560    -0.2980    -2.1960 ha         1 7ML       0.117000
     33 H6          -0.2090    -4.4600     0.7340 ha         1 7ML       0.134000
     34 H7          -2.1230    -2.8990     0.6990 ha         1 7ML       0.136000
     35 H19          4.6000     2.0760     0.6320 hn         1 7ML       0.514667
     36 H20          3.3270     3.1100     0.6370 hn         1 7ML       0.514667
     37 H16          0.2660     3.0740    -0.1900 ho         1 7ML       0.496000
     38 H17          0.1140     1.0770     1.5290 ho         1 7ML       0.496000
     39 H18          3.4270     1.9230     1.7710 hn         1 7ML       0.514667
     40 O1           1.1960     2.8220    -0.2320 oh         1 7ML      -0.704500
@<TRIPOS>BOND
     1     1    10 ar  
     2     1    14 ar  
     3     1    20 1   
     4     2     3 ar  
     5     2     5 1   
     6     2    15 ar  
     7     3     4 ar  
     8     3     6 1   
     9     4    16 ar  
    10     4    21 1   
    11     5     7 1   
    12     5    22 1   
    13     5    23 1   
    14     6     8 1   
    15     6    24 1   
    16     6    25 1   
    17     7     9 1   
    18     7    19 1   
    19     7    40 1   
    20     8     9 1   
    21     8    26 1   
    22     8    27 1   
    23     9    18 1   
    24     9    28 1   
    25    10    11 ar  
    26    10    29 1   
    27    11    12 ar  
    28    11    30 1   
    29    12    13 ar  
    30    12    31 1   
    31    13    14 ar  
    32    13    32 1   
    33    14    15 1   
    34    15    17 ar  
    35    16    17 ar  
    36    16    33 1   
    37    17    34 1   
    38    18    35 1   
    39    18    36 1   
    40    18    39 1   
    41    19    38 1   
    42    37    40 1   
@<TRIPOS>SUBSTRUCTURE
     1 7ML         1 TEMP              0 ****  ****    0 ROOT
