@<TRIPOS>MOLECULE
7ML
   40    42     1     0     0
SMALL
No Charge or Current Charge


@<TRIPOS>ATOM
      1 C1          -2.8190     0.0250     1.1770 ca         1 7ML      -0.108500
      2 C10          0.2770    -0.7900    -0.4700 ca         1 7ML      -0.085300
      3 C11          1.3770    -1.6860    -0.4370 ca         1 7ML      -0.087300
      4 C12          1.1930    -3.0090     0.0110 ca         1 7ML      -0.093000
      5 C13          0.5040     0.6620    -0.9260 c3         1 7ML      -0.083100
      6 C14          2.7820    -1.2510    -0.8540 c3         1 7ML      -0.020100
      7 C15          1.3890     1.4980     0.0340 c3         1 7ML       0.396000
      8 C16          3.3980    -0.2120     0.1080 c3         1 7ML      -0.096400
      9 C17          2.9360     1.2450    -0.1240 c3         1 7ML       0.143300
     10 C2          -3.9650     0.8390     1.1860 ca         1 7ML      -0.105000
     11 C3          -4.5320     1.2670    -0.0270 ca         1 7ML      -0.095000
     12 C4          -3.9560     0.8750    -1.2470 ca         1 7ML      -0.105000
     13 C5          -2.8110     0.0610    -1.2540 ca         1 7ML      -0.108500
     14 C6          -2.2170    -0.3670    -0.0420 cp         1 7ML      -0.075000
     15 C7          -1.0100    -1.2430    -0.0440 cp         1 7ML      -0.021000
     16 C8          -0.0660    -3.4520     0.4340 ca         1 7ML      -0.085000
     17 C9          -1.1550    -2.5730     0.4090 ca         1 7ML      -0.082000
     18 N1           3.7100     2.1560     0.7970 nz         1 7ML      -0.968000
     19 O2           0.9980     1.2850     1.3750 oh         1 7ML      -0.704500
     20 H1          -2.3900    -0.3050     2.1210 ha         1 7ML       0.117000
     21 H8           2.0320    -3.7000     0.0420 ha         1 7ML       0.123000
     22 H10          0.9560     0.6740    -1.9250 hc         1 7ML       0.080200
     23 H9          -0.4480     1.1810    -1.0590 hc         1 7ML       0.080200
     24 H12          3.4480    -2.1220    -0.8800 hc         1 7ML       0.068200
     25 H11          2.7830    -0.8600    -1.8800 hc         1 7ML       0.068200
     26 H13          3.1970    -0.5110     1.1440 hc         1 7ML       0.069200
     27 H14          4.4880    -0.2440    -0.0160 hc         1 7ML       0.069200
     28 H15          3.1920     1.5140    -1.1540 hx         1 7ML       0.110700
     29 H2          -4.4140     1.1370     2.1310 ha         1 7ML       0.126000
     30 H3          -5.4200     1.8970    -0.0210 ha         1 7ML       0.128000
     31 H4          -4.3990     1.2000    -2.1870 ha         1 7ML       0.126000
     32 H5          -2.3750    -0.2440    -2.2030 ha         1 7ML       0.117000
     33 H6          -0.1970    -4.4740     0.7820 ha         1 7ML       0.134000
     34 H7          -2.1310    -2.9230     0.7380 ha         1 7ML       0.136000
     35 H19          4.7320     2.1160     0.6870 hn         1 7ML       0.514667
     36 H20          3.4270     3.1380     0.6570 hn         1 7ML       0.514667
     37 H16          0.1800     2.9780    -0.2710 ho         1 7ML       0.496000
     38 H17          0.1690     0.7640     1.3260 ho         1 7ML       0.496000
     39 H18          3.4940     1.9640     1.7850 hn         1 7ML       0.514667
     40 O1           1.1520     2.8740    -0.1960 oh         1 7ML      -0.704500
@<TRIPOS>BOND
     1     1    10 ar  
     2     1    14 ar  
     3     1    20 1   
     4     2     3 ar  
     5     2     5 1   
     6     2    15 ar  
     7     3     4 ar  
     8     3     6 1   
     9     4    16 ar  
    10     4    21 1   
    11     5     7 1   
    12     5    22 1   
    13     5    23 1   
    14     6     8 1   
    15     6    24 1   
    16     6    25 1   
    17     7     9 1   
    18     7    19 1   
    19     7    40 1   
    20     8     9 1   
    21     8    26 1   
    22     8    27 1   
    23     9    18 1   
    24     9    28 1   
    25    10    11 ar  
    26    10    29 1   
    27    11    12 ar  
    28    11    30 1   
    29    12    13 ar  
    30    12    31 1   
    31    13    14 ar  
    32    13    32 1   
    33    14    15 1   
    34    15    17 ar  
    35    16    17 ar  
    36    16    33 1   
    37    17    34 1   
    38    18    35 1   
    39    18    36 1   
    40    18    39 1   
    41    19    38 1   
    42    37    40 1   
@<TRIPOS>SUBSTRUCTURE
     1 7ML         1 TEMP              0 ****  ****    0 ROOT
