@<TRIPOS>MOLECULE
7MM
  123   130     1     0     0
SMALL
No Charge or Current Charge


@<TRIPOS>ATOM
      1 C1         -21.2530     6.4440   -20.2970 c5         1 7MM      -0.081400
      2 N3          -7.4180     9.5540   -31.2510 nj         1 7MM      -0.427800
      3 C12        -14.8530    11.2220   -24.8210 cy         1 7MM      -0.093700
      4 C18         -7.5200     9.8130   -29.2130 cy         1 7MM      -0.362700
      5 C21         -7.0790     9.9030   -33.6490 c3         1 7MM      -0.150400
      6 C22         -8.2080    10.4890   -34.5460 c3         1 7MM      -0.067400
      7 C25         -9.6430    10.5110   -33.9500 c3         1 7MM       0.170800
      8 C28        -12.0040     6.9830   -34.4230 c6         1 7MM      -0.064400
      9 C35        -17.2400     9.7540   -23.4750 c6         1 7MM       0.163300
     10 C36        -17.7410     8.6330   -22.5300 c6         1 7MM      -0.070900
     11 C40        -16.8910     7.8570   -17.8170 cy         1 7MM       0.147800
     12 C42        -20.2920    10.2010   -19.0970 ca         1 7MM      -0.133000
     13 C44        -21.0130    10.1040   -16.7770 ca         1 7MM      -0.149000
     14 C46        -19.9960     8.1610   -17.8320 ca         1 7MM      -0.140000
     15 C45        -20.5780     8.7770   -16.7150 ca         1 7MM       0.158000
     16 C43        -20.8750    10.8150   -17.9750 ca         1 7MM      -0.087000
     17 C41        -19.8100     8.8640   -19.0530 ca         1 7MM      -0.025300
     18 C7         -19.1850     8.1690   -20.3180 c3         1 7MM       0.035300
     19 C37        -18.1890     7.0020   -19.9190 c3         1 7MM       0.178800
     20 N5         -16.9400     7.3690   -19.2260 nq         1 7MM      -0.727600
     21 C39        -15.3790     7.4720   -17.9130 cy         1 7MM      -0.105400
     22 C38        -15.8960     6.3630   -18.8870 cy         1 7MM       0.147800
     23 C          -20.3720     7.4590   -21.0970 c5         1 7MM      -0.080700
     24 C4         -21.4850     8.3910   -21.7180 c5         1 7MM       0.122700
     25 N          -21.1400     8.5110   -23.1420 ns         1 7MM      -0.498900
     26 C5         -21.1310     9.7510   -23.7190 c          1 7MM       0.633100
     27 O1         -21.4130    10.8030   -23.1670 o          1 7MM      -0.549000
     28 O          -20.7220     9.6190   -25.0110 os         1 7MM      -0.470100
     29 C6         -20.5980    10.8160   -25.8000 c3         1 7MM       0.170900
     30 C3         -22.8070     7.5550   -21.7140 c5         1 7MM      -0.094400
     31 C2         -22.3420     6.1240   -21.3470 c5         1 7MM      -0.082400
     32 C8         -18.4320     9.2320   -21.2650 c6         1 7MM      -0.049700
     33 N1         -16.3000    10.6890   -22.7910 n3         1 7MM      -0.726600
     34 C10        -16.9160    11.2720   -21.5680 c6         1 7MM       0.163300
     35 C9         -17.3850    10.1730   -20.5840 c6         1 7MM      -0.070900
     36 C11        -15.7500    11.7370   -23.6860 c3         1 7MM       0.175800
     37 C34        -13.5570    10.4360   -24.4370 cy         1 7MM       0.214800
     38 N2         -12.9170    11.1430   -25.5810 nn         1 7MM      -0.819400
     39 C13        -13.9140    12.2470   -25.5410 cy         1 7MM       0.214800
     40 C14        -11.6300    11.0910   -26.0760 ca         1 7MM       0.400000
     41 C33        -11.1690    12.0810   -26.9580 ca         1 7MM      -0.217000
     42 C32         -9.8620    12.0330   -27.4680 ca         1 7MM       0.040000
     43 C17         -9.0030    10.9830   -27.0910 ca         1 7MM      -0.369500
     44 C16         -9.4610     9.9830   -26.2130 ca         1 7MM       0.040000
     45 C15        -10.7700    10.0430   -25.7110 ca         1 7MM      -0.217000
     46 S           -7.3330    10.8980   -27.7550 sy         1 7MM       1.113500
     47 O3          -6.4940    10.1890   -26.7810 o          1 7MM      -0.534000
     48 O4          -6.9630    12.2370   -28.2280 o          1 7MM      -0.534000
     49 C31         -6.3390     9.7520   -30.2260 cy         1 7MM       0.152500
     50 C19         -8.3660    10.3520   -30.4040 cy         1 7MM       0.152500
     51 O2          -6.6960    11.6930   -32.1640 o          1 7MM      -0.612100
     52 N4         -10.4540     9.2770   -34.1250 n3         1 7MM      -0.731600
     53 C30         -9.8690     8.0560   -33.4860 c6         1 7MM       0.169800
     54 C29        -10.8540     6.8540   -33.4030 c6         1 7MM      -0.074900
     55 C27        -12.7830     8.3040   -34.1910 c6         1 7MM      -0.074900
     56 C26        -11.8720     9.4750   -33.7210 c6         1 7MM       0.169800
     57 H2         -20.7070     5.5420   -19.9980 hc         1 7MM       0.051700
     58 H3         -21.7000     6.8750   -19.3940 hc         1 7MM       0.051700
     59 H19        -15.4760    10.6770   -25.5370 hc         1 7MM       0.068700
     60 H24         -7.8450     8.8240   -28.8820 h1         1 7MM       0.111700
     61 H28         -7.1920     8.8170   -33.5770 hc         1 7MM       0.061700
     62 H27         -6.1210    10.1150   -34.1380 hc         1 7MM       0.061700
     63 H30         -8.2240     9.9650   -35.5090 hc         1 7MM       0.061200
     64 H29         -7.9380    11.5280   -34.7750 hc         1 7MM       0.061200
     65 H36        -10.1700    11.3310   -34.4560 h1         1 7MM       0.034200
     66 H35         -9.6000    10.7910   -32.8900 h1         1 7MM       0.034200
     67 H41        -11.5890     6.9710   -35.4410 hc         1 7MM       0.043200
     68 H53        -18.1070    10.3070   -23.8640 h1         1 7MM       0.031700
     69 H54        -16.7520     9.2750   -24.3360 h1         1 7MM       0.031700
     70 H55        -18.4210     7.9880   -23.0960 hc         1 7MM       0.053200
     71 H56        -16.8870     8.0070   -22.2390 hc         1 7MM       0.053200
     72 H64        -17.0900     8.9240   -17.6660 h1         1 7MM       0.046700
     73 H63        -17.4480     7.2540   -17.0890 h1         1 7MM       0.046700
     74 H65        -20.2260    10.7940   -20.0030 ha         1 7MM       0.126000
     75 H67        -21.4650    10.5720   -15.9060 ha         1 7MM       0.132000
     76 H68        -19.7080     7.1230   -17.7290 ha         1 7MM       0.127000
     77 H66        -21.2260    11.8430   -18.0400 ha         1 7MM       0.119000
     78 H57        -18.6980     6.2420   -19.3160 h1         1 7MM       0.032700
     79 H58        -17.8920     6.4840   -20.8400 h1         1 7MM       0.032700
     80 H62        -14.9110     7.1210   -16.9880 hc         1 7MM       0.060200
     81 H61        -14.7390     8.2320   -18.3770 hc         1 7MM       0.060200
     82 H60        -16.2640     5.4610   -18.3810 h1         1 7MM       0.046700
     83 H59        -15.2040     6.0940   -19.6940 h1         1 7MM       0.046700
     84 H          -19.8810     6.8730   -21.8820 hc         1 7MM       0.045700
     85 H1         -21.6120     9.3460   -21.1920 h1         1 7MM       0.090700
     86 H8         -20.8850     7.7330   -23.7350 hn         1 7MM       0.322500
     87 H9         -20.2610    10.5710   -26.8150 h1         1 7MM       0.048367
     88 H10        -21.5620    11.3350   -25.8770 h1         1 7MM       0.048367
     89 H11        -19.8670    11.5030   -25.3550 h1         1 7MM       0.048367
     90 H6         -23.4880     7.9410   -20.9460 hc         1 7MM       0.058700
     91 H7         -23.3620     7.5880   -22.6600 hc         1 7MM       0.058700
     92 H4         -23.1550     5.5140   -20.9370 hc         1 7MM       0.046200
     93 H5         -21.9340     5.5900   -22.2140 hc         1 7MM       0.046200
     94 H12        -19.2190     9.8870   -21.6510 hc         1 7MM       0.050700
     95 H15        -16.1900    11.9160   -21.0500 h1         1 7MM       0.031700
     96 H16        -17.7750    11.9050   -21.8360 h1         1 7MM       0.031700
     97 H14        -16.4970     9.6150   -20.2680 hc         1 7MM       0.053200
     98 H13        -17.7860    10.6480   -19.6820 hc         1 7MM       0.053200
     99 H17        -15.1390    12.4330   -23.0950 h1         1 7MM       0.039700
    100 H18        -16.5630    12.3230   -24.1350 h1         1 7MM       0.039700
    101 H51        -13.6600     9.3480   -24.5300 h1         1 7MM       0.061450
    102 H52        -13.1550    10.6980   -23.4500 h1         1 7MM       0.061450
    103 H21        -13.6250    13.1030   -24.9190 h1         1 7MM       0.061450
    104 H20        -14.2970    12.5900   -26.5100 h1         1 7MM       0.061450
    105 H50        -11.8250    12.8920   -27.2550 ha         1 7MM       0.120000
    106 H49         -9.5280    12.8120   -28.1530 ha         1 7MM       0.131500
    107 H23         -8.8120     9.1580   -25.9200 ha         1 7MM       0.131500
    108 H22        -11.1160     9.2660   -25.0360 ha         1 7MM       0.120000
    109 H48         -5.6870     8.8790   -30.1050 h1         1 7MM       0.066450
    110 H47         -5.7390    10.6710   -30.2780 h1         1 7MM       0.066450
    111 H26         -8.3560    11.4450   -30.5120 h1         1 7MM       0.066450
    112 H25         -9.3960     9.9770   -30.4300 h1         1 7MM       0.066450
    113 H46         -9.0020     7.7290   -34.0750 h1         1 7MM       0.027950
    114 H45         -9.5090     8.2800   -32.4720 h1         1 7MM       0.027950
    115 H44        -11.2770     6.8040   -32.3900 hc         1 7MM       0.039450
    116 H43        -10.3080     5.9130   -33.5550 hc         1 7MM       0.039450
    117 H40        -13.2930     8.5850   -35.1220 hc         1 7MM       0.039450
    118 H39        -13.5740     8.1480   -33.4450 hc         1 7MM       0.039450
    119 H38        -12.2710    10.4150   -34.1310 h1         1 7MM       0.027950
    120 H37        -11.9330     9.5560   -32.6250 h1         1 7MM       0.027950
    121 F          -20.7290     8.0770   -15.5690 f          1 7MM      -0.190000
    122 C20         -7.0440    10.5160   -32.2410 c          1 7MM       0.613100
    123 H42        -12.6830     6.1230   -34.3520 hc         1 7MM       0.043200
@<TRIPOS>BOND
     1     1    23 1   
     2     1    31 1   
     3     1    57 1   
     4     1    58 1   
     5     2    49 1   
     6     2    50 1   
     7     2   122 1   
     8     3    36 1   
     9     3    37 1   
    10     3    39 1   
    11     3    59 1   
    12     4    46 1   
    13     4    49 1   
    14     4    50 1   
    15     4    60 1   
    16     5     6 1   
    17     5    61 1   
    18     5    62 1   
    19     5   122 1   
    20     6     7 1   
    21     6    63 1   
    22     6    64 1   
    23     7    52 1   
    24     7    65 1   
    25     7    66 1   
    26     8    54 1   
    27     8    55 1   
    28     8    67 1   
    29     8   123 1   
    30     9    10 1   
    31     9    33 1   
    32     9    68 1   
    33     9    69 1   
    34    10    32 1   
    35    10    70 1   
    36    10    71 1   
    37    11    20 1   
    38    11    21 1   
    39    11    72 1   
    40    11    73 1   
    41    12    16 ar  
    42    12    17 ar  
    43    12    74 1   
    44    13    15 ar  
    45    13    16 ar  
    46    13    75 1   
    47    14    15 ar  
    48    14    17 ar  
    49    14    76 1   
    50    15   121 1   
    51    16    77 1   
    52    17    18 1   
    53    18    19 1   
    54    18    23 1   
    55    18    32 1   
    56    19    20 1   
    57    19    78 1   
    58    19    79 1   
    59    20    22 1   
    60    21    22 1   
    61    21    80 1   
    62    21    81 1   
    63    22    82 1   
    64    22    83 1   
    65    23    24 1   
    66    23    84 1   
    67    24    25 1   
    68    24    30 1   
    69    24    85 1   
    70    25    26 1   
    71    25    86 1   
    72    26    27 2   
    73    26    28 1   
    74    28    29 1   
    75    29    87 1   
    76    29    88 1   
    77    29    89 1   
    78    30    31 1   
    79    30    90 1   
    80    30    91 1   
    81    31    92 1   
    82    31    93 1   
    83    32    35 1   
    84    32    94 1   
    85    33    34 1   
    86    33    36 1   
    87    34    35 1   
    88    34    95 1   
    89    34    96 1   
    90    35    97 1   
    91    35    98 1   
    92    36    99 1   
    93    36   100 1   
    94    37    38 1   
    95    37   101 1   
    96    37   102 1   
    97    38    39 1   
    98    38    40 1   
    99    39   103 1   
   100    39   104 1   
   101    40    41 ar  
   102    40    45 ar  
   103    41    42 ar  
   104    41   105 1   
   105    42    43 ar  
   106    42   106 1   
   107    43    44 ar  
   108    43    46 1   
   109    44    45 ar  
   110    44   107 1   
   111    45   108 1   
   112    46    47 2   
   113    46    48 2   
   114    49   109 1   
   115    49   110 1   
   116    50   111 1   
   117    50   112 1   
   118    51   122 2   
   119    52    53 1   
   120    52    56 1   
   121    53    54 1   
   122    53   113 1   
   123    53   114 1   
   124    54   115 1   
   125    54   116 1   
   126    55    56 1   
   127    55   117 1   
   128    55   118 1   
   129    56   119 1   
   130    56   120 1   
@<TRIPOS>SUBSTRUCTURE
     1 7MM         1 TEMP              0 ****  ****    0 ROOT
