@<TRIPOS>MOLECULE
7MM
  123   130     1     0     0
SMALL
abcg2


@<TRIPOS>ATOM
      1 C1         -21.9850     7.3490   -19.4620 c5         1 7MM      -0.081400
      2 N3          -9.1920    10.5210   -31.8600 nj         1 7MM      -0.427800
      3 C12        -15.7480    11.2630   -24.5480 cy         1 7MM      -0.093700
      4 C18         -9.4330     9.7920   -29.9120 cy         1 7MM      -0.362700
      5 C21         -7.6880    10.9550   -33.7170 c3         1 7MM      -0.150400
      6 C22         -7.8700    10.6080   -35.2000 c3         1 7MM      -0.067400
      7 C25         -8.6320     9.3100   -35.5010 c3         1 7MM       0.170800
      8 C28         -6.2760     5.8850   -35.8190 c6         1 7MM      -0.064400
      9 C35        -18.1230    10.3030   -22.8830 c6         1 7MM       0.163300
     10 C36        -18.7260     9.1520   -22.0870 c6         1 7MM      -0.070900
     11 C40        -17.2680     5.5830   -18.8270 cy         1 7MM       0.147800
     12 C42        -19.6920    10.1720   -17.8470 ca         1 7MM      -0.133000
     13 C44        -19.6430     9.5660   -15.5060 ca         1 7MM      -0.149000
     14 C46        -19.4720     7.8740   -17.2430 ca         1 7MM      -0.140000
     15 C45        -19.5080     8.2550   -15.9150 ca         1 7MM       0.158000
     16 C43        -19.7350    10.5300   -16.5050 ca         1 7MM      -0.087000
     17 C41        -19.5660     8.8370   -18.2530 ca         1 7MM      -0.025300
     18 C7         -19.5900     8.4430   -19.7340 c3         1 7MM       0.035300
     19 C37        -19.0100     7.0220   -19.9540 c3         1 7MM       0.178800
     20 N5         -17.6210     6.8110   -19.5730 nq         1 7MM      -0.727600
     21 C39        -15.9460     5.5120   -19.6170 cy         1 7MM      -0.105400
     22 C38        -16.6210     6.4760   -20.6120 cy         1 7MM       0.147800
     23 C          -21.0840     8.3490   -20.2150 c5         1 7MM      -0.080700
     24 C4         -21.8990     9.6790   -20.2390 c5         1 7MM       0.122700
     25 N          -21.9430    10.2500   -21.5770 ns         1 7MM      -0.498900
     26 C5         -21.6060    11.5220   -21.8530 c          1 7MM       0.633100
     27 O1         -21.2670    12.3670   -21.0370 o          1 7MM      -0.549000
     28 O          -21.6810    11.7610   -23.1850 os         1 7MM      -0.470100
     29 C6         -21.3110    13.0820   -23.6100 c3         1 7MM       0.170900
     30 C3         -23.2990     9.3260   -19.6850 c5         1 7MM      -0.094400
     31 C2         -23.4040     7.8060   -19.8040 c5         1 7MM      -0.082400
     32 C8         -18.8440     9.5120   -20.6010 c6         1 7MM      -0.049700
     33 N1         -16.8020    10.6710   -22.3770 n3         1 7MM      -0.726600
     34 C10        -16.8870    11.0500   -20.9660 c6         1 7MM       0.163300
     35 C9         -17.4470     9.9210   -20.1110 c6         1 7MM      -0.070900
     36 C11        -16.1740    11.7230   -23.1660 c3         1 7MM       0.175800
     37 C34        -14.5850    10.2390   -24.5750 cy         1 7MM       0.214800
     38 N2         -13.7380    11.2710   -25.1820 nn         1 7MM      -0.819400
     39 C13        -14.8210    12.2520   -25.3020 cy         1 7MM       0.214800
     40 C14        -12.6220    11.1330   -25.9270 ca         1 7MM       0.400000
     41 C33        -12.1570    12.1950   -26.7370 ca         1 7MM      -0.217000
     42 C32        -11.0130    12.0490   -27.4920 ca         1 7MM       0.040000
     43 C17        -10.2960    10.8480   -27.4580 ca         1 7MM      -0.369500
     44 C16        -10.7420     9.7890   -26.6590 ca         1 7MM       0.040000
     45 C15        -11.8860     9.9250   -25.9040 ca         1 7MM      -0.217000
     46 S           -8.8700    10.6480   -28.4450 sy         1 7MM       1.113500
     47 O3          -7.9380     9.7480   -27.7870 o          1 7MM      -0.534000
     48 O4          -8.3850    11.9570   -28.8530 o          1 7MM      -0.534000
     49 C31         -8.3360     9.6930   -31.0030 cy         1 7MM       0.152500
     50 C19        -10.2840    10.6360   -30.8920 cy         1 7MM       0.152500
     51 O2          -9.8900    11.9150   -33.4700 o          1 7MM      -0.612100
     52 N4          -7.7960     8.1220   -35.6230 n3         1 7MM      -0.731600
     53 C30         -7.1400     7.7520   -34.3620 c6         1 7MM       0.169800
     54 C29         -6.6000     6.3130   -34.3910 c6         1 7MM      -0.074900
     55 C27         -7.5590     5.9060   -36.6690 c6         1 7MM      -0.074900
     56 C26         -8.5340     6.9860   -36.1730 c6         1 7MM       0.169800
     57 H2         -21.7930     6.3180   -19.7550 hc         1 7MM       0.051700
     58 H3         -21.8280     7.4230   -18.3830 hc         1 7MM       0.051700
     59 H19        -16.6010    10.9540   -25.1450 hc         1 7MM       0.068700
     60 H24         -9.8670     8.8510   -29.5860 h1         1 7MM       0.111700
     61 H28         -7.1000    10.2010   -33.1990 hc         1 7MM       0.061700
     62 H27         -7.1380    11.8980   -33.6360 hc         1 7MM       0.061700
     63 H30         -6.8900    10.5620   -35.6810 hc         1 7MM       0.061200
     64 H29         -8.4110    11.4330   -35.6650 hc         1 7MM       0.061200
     65 H36         -9.1440     9.4320   -36.4570 h1         1 7MM       0.034200
     66 H35         -9.4210     9.1600   -34.7400 h1         1 7MM       0.034200
     67 H41         -5.5380     6.5710   -36.2420 hc         1 7MM       0.043200
     68 H53        -18.8030    11.1740   -22.8490 h1         1 7MM       0.031700
     69 H54        -18.0350    10.0090   -23.9290 h1         1 7MM       0.031700
     70 H55        -19.6970     8.9120   -22.5180 hc         1 7MM       0.053200
     71 H56        -18.0870     8.2760   -22.2160 hc         1 7MM       0.053200
     72 H64        -17.2160     5.7020   -17.7430 h1         1 7MM       0.046700
     73 H63        -17.9340     4.7420   -19.0620 h1         1 7MM       0.046700
     74 H65        -19.7380    10.9610   -18.5820 ha         1 7MM       0.126000
     75 H67        -19.6670     9.8190   -14.4550 ha         1 7MM       0.132000
     76 H68        -19.3720     6.8230   -17.4600 ha         1 7MM       0.127000
     77 H66        -19.8330    11.5730   -16.2330 ha         1 7MM       0.119000
     78 H57        -19.6220     6.3100   -19.4020 h1         1 7MM       0.032700
     79 H58        -19.1500     6.7640   -21.0090 h1         1 7MM       0.032700
     80 H62        -15.6470     4.5380   -19.9950 hc         1 7MM       0.060200
     81 H61        -15.1150     5.9730   -19.0850 hc         1 7MM       0.060200
     82 H60        -17.0680     5.9470   -21.4650 h1         1 7MM       0.046700
     83 H59        -16.0370     7.3180   -20.9880 h1         1 7MM       0.046700
     84 H          -21.0440     7.9980   -21.2480 hc         1 7MM       0.045700
     85 H1         -21.4470    10.4400   -19.6160 h1         1 7MM       0.090700
     86 H8         -22.1850     9.6550   -22.3550 hn         1 7MM       0.322500
     87 H9         -21.4330    13.0830   -24.6900 h1         1 7MM       0.048367
     88 H10        -21.9620    13.8290   -23.1570 h1         1 7MM       0.048367
     89 H11        -20.2740    13.2910   -23.3480 h1         1 7MM       0.048367
     90 H6         -23.3420     9.6110   -18.6310 hc         1 7MM       0.058700
     91 H7         -24.0840     9.8710   -20.2100 hc         1 7MM       0.058700
     92 H4         -24.1610     7.3760   -19.1470 hc         1 7MM       0.046200
     93 H5         -23.6520     7.5200   -20.8300 hc         1 7MM       0.046200
     94 H12        -19.4500    10.4200   -20.5580 hc         1 7MM       0.050700
     95 H15        -15.8840    11.3130   -20.6240 h1         1 7MM       0.031700
     96 H16        -17.5190    11.9490   -20.8460 h1         1 7MM       0.031700
     97 H14        -16.7670     9.0730   -20.1460 hc         1 7MM       0.053200
     98 H13        -17.4790    10.2570   -19.0750 hc         1 7MM       0.053200
     99 H17        -15.2850    12.0580   -22.6240 h1         1 7MM       0.039700
    100 H18        -16.8370    12.6010   -23.2670 h1         1 7MM       0.039700
    101 H51        -14.7420     9.3750   -25.2270 h1         1 7MM       0.061450
    102 H52        -14.2410     9.8960   -23.5970 h1         1 7MM       0.061450
    103 H21        -14.6230    13.1990   -24.7930 h1         1 7MM       0.061450
    104 H20        -15.1070    12.4530   -26.3380 h1         1 7MM       0.061450
    105 H50        -12.7020    13.1290   -26.7600 ha         1 7MM       0.120000
    106 H49        -10.6630    12.8660   -28.1080 ha         1 7MM       0.131500
    107 H23        -10.1860     8.8620   -26.6300 ha         1 7MM       0.131500
    108 H22        -12.2230     9.1060   -25.2840 ha         1 7MM       0.120000
    109 H48         -8.1780     8.6830   -31.3780 h1         1 7MM       0.066450
    110 H47         -7.3800    10.1500   -30.7500 h1         1 7MM       0.066450
    111 H26        -10.4880    11.6610   -30.5830 h1         1 7MM       0.066450
    112 H25        -11.2090    10.1540   -31.2090 h1         1 7MM       0.066450
    113 H46         -6.3180     8.4480   -34.1860 h1         1 7MM       0.027950
    114 H45         -7.8430     7.8590   -33.5190 h1         1 7MM       0.027950
    115 H44         -7.3460     5.6280   -33.9780 hc         1 7MM       0.039450
    116 H43         -5.7210     6.2440   -33.7480 hc         1 7MM       0.039450
    117 H40         -7.3070     6.0880   -37.7160 hc         1 7MM       0.039450
    118 H39         -8.0570     4.9340   -36.6230 hc         1 7MM       0.039450
    119 H38         -9.1510     7.3430   -36.9990 h1         1 7MM       0.027950
    120 H37         -9.2270     6.5650   -35.4240 h1         1 7MM       0.027950
    121 F          -19.4030     7.2810   -14.9680 f          1 7MM      -0.190000
    122 C20         -9.0130    11.1720   -33.0160 c          1 7MM       0.613100
    123 H42         -5.8270     4.8900   -35.8330 hc         1 7MM       0.043200
@<TRIPOS>BOND
     1     1    23 1   
     2     1    31 1   
     3     1    57 1   
     4     1    58 1   
     5     2    49 1   
     6     2    50 1   
     7     2   122 1   
     8     3    36 1   
     9     3    37 1   
    10     3    39 1   
    11     3    59 1   
    12     4    46 1   
    13     4    49 1   
    14     4    50 1   
    15     4    60 1   
    16     5     6 1   
    17     5    61 1   
    18     5    62 1   
    19     5   122 1   
    20     6     7 1   
    21     6    63 1   
    22     6    64 1   
    23     7    52 1   
    24     7    65 1   
    25     7    66 1   
    26     8    54 1   
    27     8    55 1   
    28     8    67 1   
    29     8   123 1   
    30     9    10 1   
    31     9    33 1   
    32     9    68 1   
    33     9    69 1   
    34    10    32 1   
    35    10    70 1   
    36    10    71 1   
    37    11    20 1   
    38    11    21 1   
    39    11    72 1   
    40    11    73 1   
    41    12    16 ar  
    42    12    17 ar  
    43    12    74 1   
    44    13    15 ar  
    45    13    16 ar  
    46    13    75 1   
    47    14    15 ar  
    48    14    17 ar  
    49    14    76 1   
    50    15   121 1   
    51    16    77 1   
    52    17    18 1   
    53    18    19 1   
    54    18    23 1   
    55    18    32 1   
    56    19    20 1   
    57    19    78 1   
    58    19    79 1   
    59    20    22 1   
    60    21    22 1   
    61    21    80 1   
    62    21    81 1   
    63    22    82 1   
    64    22    83 1   
    65    23    24 1   
    66    23    84 1   
    67    24    25 1   
    68    24    30 1   
    69    24    85 1   
    70    25    26 1   
    71    25    86 1   
    72    26    27 2   
    73    26    28 1   
    74    28    29 1   
    75    29    87 1   
    76    29    88 1   
    77    29    89 1   
    78    30    31 1   
    79    30    90 1   
    80    30    91 1   
    81    31    92 1   
    82    31    93 1   
    83    32    35 1   
    84    32    94 1   
    85    33    34 1   
    86    33    36 1   
    87    34    35 1   
    88    34    95 1   
    89    34    96 1   
    90    35    97 1   
    91    35    98 1   
    92    36    99 1   
    93    36   100 1   
    94    37    38 1   
    95    37   101 1   
    96    37   102 1   
    97    38    39 1   
    98    38    40 1   
    99    39   103 1   
   100    39   104 1   
   101    40    41 ar  
   102    40    45 ar  
   103    41    42 ar  
   104    41   105 1   
   105    42    43 ar  
   106    42   106 1   
   107    43    44 ar  
   108    43    46 1   
   109    44    45 ar  
   110    44   107 1   
   111    45   108 1   
   112    46    47 2   
   113    46    48 2   
   114    49   109 1   
   115    49   110 1   
   116    50   111 1   
   117    50   112 1   
   118    51   122 2   
   119    52    53 1   
   120    52    56 1   
   121    53    54 1   
   122    53   113 1   
   123    53   114 1   
   124    54   115 1   
   125    54   116 1   
   126    55    56 1   
   127    55   117 1   
   128    55   118 1   
   129    56   119 1   
   130    56   120 1   
@<TRIPOS>SUBSTRUCTURE
     1 7MM         1 TEMP              0 ****  ****    0 ROOT
