@<TRIPOS>MOLECULE
7MN
   50    52     1     0     0
SMALL
No Charge or Current Charge


@<TRIPOS>ATOM
      1 C           80.2920    18.8460     8.6250 c          1 7MN       0.615700
      2 N           81.1490    17.0070    10.0530 nu         1 7MN      -0.094600
      3 O           81.1120    18.4960     7.7850 o          1 7MN      -0.686000
      4 P           79.9260    12.4420    14.2510 p5         1 7MN       1.259900
      5 N1          84.5350    13.5720    11.9590 na         1 7MN      -0.607000
      6 C2          84.5820    14.3370    10.7860 cc         1 7MN      -0.002200
      7 C3          83.5250    15.1940    10.5130 cd         1 7MN       0.038100
      8 O3          83.5650    15.9220     9.3630 oh         1 7MN      -0.549100
      9 C4          82.3990    15.3210    11.4190 cd         1 7MN       0.097000
     10 C5          82.4200    14.5230    12.6200 cd         1 7MN      -0.112200
     11 C6          83.4660    13.6540    12.8680 cc         1 7MN       0.013000
     12 CA          80.2060    18.0550     9.9110 ce         1 7MN       0.120300
     13 CB          79.2570    18.4760    11.0360 c3         1 7MN       0.156500
     14 CG          76.4210    15.8870    10.7740 c5         1 7MN      -0.049100
     15 O1P         79.5000    12.9360    15.5890 o          1 7MN      -0.917500
     16 O2P         78.8180    11.6580    13.6410 o          1 7MN      -0.917500
     17 O3P         81.1240    11.5690    14.3890 o          1 7MN      -0.917500
     18 C4A         81.3380    16.1650    11.1610 c2         1 7MN      -0.318100
     19 C5A         81.3220    14.5810    13.6680 c3         1 7MN       0.290800
     20 CD1         77.5800    16.7070    10.0700 c5         1 7MN       0.207800
     21 CD2         76.5880    16.2650    12.2360 ca         1 7MN      -0.089300
     22 NE1         78.2760    17.3680    11.2170 nh         1 7MN      -0.795400
     23 CE2         77.6600    17.1080    12.4370 ca         1 7MN       0.300000
     24 CE3         75.7890    15.8540    13.3140 ca         1 7MN      -0.037000
     25 CH2         77.1990    17.1860    14.8080 ca         1 7MN      -0.095000
     26 OXT         79.5580    19.8120     8.4610 o          1 7MN      -0.686000
     27 CZ2         77.9910    17.5880    13.7140 ca         1 7MN      -0.179000
     28 CZ3         76.1010    16.3220    14.6070 ca         1 7MN      -0.152000
     29 H6          83.5110    13.0150    13.7500 h4         1 7MN       0.233000
     30 HB          79.8500    18.6430    11.9440 h1         1 7MN       0.061200
     31 HBA         78.7370    19.4110    10.7870 h1         1 7MN       0.061200
     32 HG          76.5450    14.8100    10.6140 hc         1 7MN       0.093700
     33 H2A         85.4890    13.7950     8.9000 hc         1 7MN       0.040367
     34 H2AA        86.3190    15.1120     9.7570 hc         1 7MN       0.040367
     35 H4A         80.5030    16.1990    11.8570 h4         1 7MN       0.273000
     36 H5A         81.7500    14.3090    14.6430 h1         1 7MN       0.005200
     37 H5AA        80.9450    15.6050    13.7810 h1         1 7MN       0.005200
     38 HD1         78.2550    16.0400     9.5160 h1         1 7MN       0.031200
     39 HE3         74.9430    15.1890    13.1550 ha         1 7MN       0.116000
     40 HH2         77.4340    17.5420    15.8080 ha         1 7MN       0.080000
     41 HZ2         78.8350    18.2520    13.8660 ha         1 7MN       0.091000
     42 HZ3         75.4930    16.0140    15.4540 ha         1 7MN       0.092000
     43 H           81.8280    16.9270     9.2930 hn         1 7MN       0.379000
     44 H19         85.3050    12.9290    12.1590 hn         1 7MN       0.488000
     45 H20         84.4010    15.6920     8.9040 ho         1 7MN       0.458000
     46 H21         75.4380    16.1670    10.3820 hc         1 7MN       0.093700
     47 H22         86.5020    13.4420    10.3040 hc         1 7MN       0.040367
     48 H23         77.1710    17.4500     9.3710 h1         1 7MN       0.031200
     49 C2A         85.7870    14.1620     9.8890 c3         1 7MN      -0.050900
     50 O4P         80.2690    13.6900    13.2950 os         1 7MN      -0.558400
@<TRIPOS>BOND
     1     1     3 1   
     2     1    12 1   
     3     1    26 1   
     4     2    12 2   
     5     2    18 1   
     6     2    43 1   
     7     4    15 1   
     8     4    16 1   
     9     4    17 1   
    10     4    50 1   
    11     5     6 1   
    12     5    11 1   
    13     5    44 1   
    14     6     7 2   
    15     6    49 1   
    16     7     8 1   
    17     7     9 1   
    18     8    45 1   
    19     9    10 1   
    20     9    18 2   
    21    10    11 2   
    22    10    19 1   
    23    11    29 1   
    24    12    13 1   
    25    13    22 1   
    26    13    30 1   
    27    13    31 1   
    28    14    20 1   
    29    14    21 1   
    30    14    32 1   
    31    14    46 1   
    32    18    35 1   
    33    19    36 1   
    34    19    37 1   
    35    19    50 1   
    36    20    22 1   
    37    20    38 1   
    38    20    48 1   
    39    21    23 ar  
    40    21    24 ar  
    41    22    23 1   
    42    23    27 ar  
    43    24    28 ar  
    44    24    39 1   
    45    25    27 ar  
    46    25    28 ar  
    47    25    40 1   
    48    27    41 1   
    49    28    42 1   
    50    33    49 1   
    51    34    49 1   
    52    47    49 1   
@<TRIPOS>SUBSTRUCTURE
     1 7MN         1 TEMP              0 ****  ****    0 ROOT
