@<TRIPOS>MOLECULE
7MN
   50    52     1     0     0
SMALL
bcc


@<TRIPOS>ATOM
      1 C           80.4540    18.6970     8.5820 c          1 7MN       0.826300
      2 N           81.1730    17.0830    10.1740 nu         1 7MN      -0.044300
      3 O           81.4590    18.3460     7.9310 o          1 7MN      -0.791300
      4 P           79.5010    12.4770    13.5160 p5         1 7MN       1.259900
      5 N1          84.4550    13.6240    11.9990 na         1 7MN      -0.551800
      6 C2          84.5330    14.3790    10.8770 cc         1 7MN      -0.002200
      7 C3          83.5090    15.2420    10.5980 cd         1 7MN       0.038100
      8 O3          83.5250    16.0250     9.4940 oh         1 7MN      -0.510100
      9 C4          82.3680    15.3780    11.4530 cd         1 7MN       0.097000
     10 C5          82.3600    14.5320    12.6140 cd         1 7MN      -0.112200
     11 C6          83.4030    13.6890    12.8360 cc         1 7MN       0.063000
     12 CA          80.2640    17.9740     9.9060 ce         1 7MN       0.120300
     13 CB          79.1700    18.3060    10.8640 c3         1 7MN       0.156500
     14 CG          76.8570    15.4050    11.1770 c5         1 7MN      -0.049100
     15 O1P         79.4330    12.5720    15.0370 o          1 7MN      -0.917500
     16 O2P         78.1500    12.4070    12.8110 o          1 7MN      -0.917500
     17 O3P         80.5570    11.5090    12.9920 o          1 7MN      -0.917500
     18 C4A         81.3120    16.2620    11.2520 c2         1 7MN      -0.268100
     19 C5A         81.2090    14.5340    13.5850 c3         1 7MN       0.267600
     20 CD1         77.6530    16.3980    10.3220 c5         1 7MN       0.207800
     21 CD2         76.8080    16.0990    12.5090 ca         1 7MN      -0.089300
     22 NE1         78.4300    17.1510    11.3010 nh         1 7MN      -0.657000
     23 CE2         77.7710    17.1150    12.5150 ca         1 7MN       0.161600
     24 CE3         76.0560    15.8400    13.6340 ca         1 7MN      -0.055000
     25 CH2         77.1970    17.6250    14.7780 ca         1 7MN      -0.113000
     26 OXT         79.6010    19.5490     8.2930 o          1 7MN      -0.791300
     27 CZ2         77.9700    17.8940    13.6480 ca         1 7MN      -0.197000
     28 CZ3         76.2480    16.6140    14.7820 ca         1 7MN      -0.170000
     29 H6          83.4390    13.0310    13.6920 h4         1 7MN       0.183000
     30 HB          79.6260    18.7790    11.7410 h1         1 7MN       0.061200
     31 HBA         78.5230    19.0570    10.4000 h1         1 7MN       0.061200
     32 HG          77.3820    14.4510    11.2800 hc         1 7MN       0.093700
     33 H2A         85.4740    13.9720     8.9880 hc         1 7MN       0.040367
     34 H2AA        86.3240    15.1580     9.9830 hc         1 7MN       0.040367
     35 H4A         80.5000    16.2940    11.9540 h4         1 7MN       0.223000
     36 H5A         81.5100    13.9700    14.4760 h1         1 7MN       0.005200
     37 H5AA        81.0420    15.5640    13.9320 h1         1 7MN       0.005200
     38 HD1         78.3050    15.9100     9.5970 h1         1 7MN       0.031200
     39 HE3         75.3160    15.0490    13.6260 ha         1 7MN       0.134000
     40 HH2         77.3420    18.2290    15.6650 ha         1 7MN       0.098000
     41 HZ2         78.6970    18.6960    13.6740 ha         1 7MN       0.109000
     42 HZ3         75.6580    16.4260    15.6690 ha         1 7MN       0.110000
     43 H           81.8730    17.0260     9.4270 hn         1 7MN       0.328700
     44 H19         85.2060    12.9830    12.2090 hn         1 7MN       0.432800
     45 H20         84.3350    15.9390     8.9780 ho         1 7MN       0.419000
     46 H21         75.8750    15.1950    10.7540 hc         1 7MN       0.093700
     47 H22         86.4000    13.4500    10.3820 hc         1 7MN       0.040367
     48 H23         76.9790    17.0690     9.7720 h1         1 7MN       0.031200
     49 C2A         85.7430    14.2340    10.0120 c3         1 7MN      -0.050900
     50 O4P         80.0340    14.0390    13.0160 os         1 7MN      -0.535200
@<TRIPOS>BOND
     1     1     3 1   
     2     1    12 1   
     3     1    26 1   
     4     2    12 2   
     5     2    18 1   
     6     2    43 1   
     7     4    15 1   
     8     4    16 1   
     9     4    17 1   
    10     4    50 1   
    11     5     6 1   
    12     5    11 1   
    13     5    44 1   
    14     6     7 2   
    15     6    49 1   
    16     7     8 1   
    17     7     9 1   
    18     8    45 1   
    19     9    10 1   
    20     9    18 2   
    21    10    11 2   
    22    10    19 1   
    23    11    29 1   
    24    12    13 1   
    25    13    22 1   
    26    13    30 1   
    27    13    31 1   
    28    14    20 1   
    29    14    21 1   
    30    14    32 1   
    31    14    46 1   
    32    18    35 1   
    33    19    36 1   
    34    19    37 1   
    35    19    50 1   
    36    20    22 1   
    37    20    38 1   
    38    20    48 1   
    39    21    23 ar  
    40    21    24 ar  
    41    22    23 1   
    42    23    27 ar  
    43    24    28 ar  
    44    24    39 1   
    45    25    27 ar  
    46    25    28 ar  
    47    25    40 1   
    48    27    41 1   
    49    28    42 1   
    50    33    49 1   
    51    34    49 1   
    52    47    49 1   
@<TRIPOS>SUBSTRUCTURE
     1 7MN         1 TEMP              0 ****  ****    0 ROOT
