@<TRIPOS>MOLECULE
7MO
   49    51     1     0     0
SMALL
No Charge or Current Charge


@<TRIPOS>ATOM
      1 N43         73.4810    16.6730    45.0580 n8         1 7MO      -1.162300
      2 P44         72.4260    15.4960    44.7680 p5         1 7MO       1.338100
      3 O69         71.3330    15.5290    45.7660 o          1 7MO      -0.564000
      4 O45         72.0710    15.7870    43.2320 os         1 7MO      -0.592400
      5 C46         70.9350    15.1740    42.5860 c3         1 7MO       0.225600
      6 C47         70.9390    13.6340    42.7680 c3         1 7MO      -0.126400
      7 C48         69.8350    12.9330    41.9600 c3         1 7MO       0.156800
      8 N49         69.8310    11.4820    42.2210 n8         1 7MO      -1.011200
      9 O50         73.3380    14.1770    44.6560 os         1 7MO      -0.599400
     10 C51         74.7750    14.0650    44.7310 c3         1 7MO       0.215600
     11 C52         75.3100    14.1630    46.2050 c5         1 7MO       0.148300
     12 C53         76.1110    12.8880    46.6710 c5         1 7MO       0.152300
     13 O54         77.4730    13.1680    46.9950 oh         1 7MO      -0.689000
     14 C55         75.3850    12.4260    47.9810 c5         1 7MO       0.093300
     15 O56         76.0940    12.9240    49.1450 oh         1 7MO      -0.688000
     16 C57         73.9710    13.0760    47.8120 c5         1 7MO       0.290300
     17 O68         74.2510    14.3480    47.1860 os         1 7MO      -0.428000
     18 N58         72.9340    12.3550    47.0610 na         1 7MO      -0.313300
     19 C67         73.1290    11.4110    46.0440 cc         1 7MO       0.386700
     20 N66         71.9670    11.0490    45.4720 nd         1 7MO      -0.543100
     21 C65         71.0160    11.7780    46.1920 ca         1 7MO      -0.091600
     22 C59         71.5860    12.5430    47.1790 ca         1 7MO       0.157500
     23 C63         69.6120    11.8290    46.0430 ca         1 7MO       0.449900
     24 N64         68.9400    11.1920    45.0490 nv         1 7MO      -1.061900
     25 N62         68.8540    12.5710    46.8650 nb         1 7MO      -0.310000
     26 C61         69.5150    13.2620    47.8250 ca         1 7MO       0.190900
     27 N60         70.8530    13.2920    48.0260 nb         1 7MO      -0.219000
     28 H1          73.8660    16.3040    45.9250 hn         1 7MO       0.472500
     29 H2          74.1680    16.4650    44.3420 hn         1 7MO       0.472500
     30 H3          70.9580    15.4040    41.5120 h1         1 7MO       0.045700
     31 H4          69.9990    15.5840    42.9890 h1         1 7MO       0.045700
     32 H5          70.7920    13.3850    43.8240 hc         1 7MO       0.075200
     33 H6          71.9140    13.2370    42.4640 hc         1 7MO       0.075200
     34 H7          69.9960    13.1020    40.8860 h1         1 7MO       0.030700
     35 H8          68.8530    13.3420    42.2350 h1         1 7MO       0.030700
     36 H9          69.1590    11.0350    41.5840 hn         1 7MO       0.403500
     37 H10         70.7320    11.0910    41.9160 hn         1 7MO       0.403500
     38 H12         75.0820    13.1060    44.2970 h1         1 7MO       0.046700
     39 H13         75.2620    14.8370    44.1210 h1         1 7MO       0.046700
     40 H14         75.9600    15.0460    46.2520 h1         1 7MO       0.084700
     41 H15         76.0660    12.0940    45.9130 h1         1 7MO       0.064700
     42 H16         77.4290    13.2210    47.9870 ho         1 7MO       0.512000
     43 H17         75.3100    11.3300    48.0260 h1         1 7MO       0.058700
     44 H18         75.6570    12.5520    49.9490 ho         1 7MO       0.510000
     45 H19         73.5250    13.2490    48.7990 h2         1 7MO       0.108700
     46 H20         74.1100    11.0570    45.7530 h5         1 7MO       0.052800
     47 H21         67.9640    11.4480    44.9460 hn         1 7MO       0.507000
     48 H22         69.4360    11.1350    44.1510 hn         1 7MO       0.507000
     49 H23         68.9080    13.8640    48.4990 h5         1 7MO       0.039100
@<TRIPOS>BOND
     1     1     2 1   
     2     1    28 1   
     3     1    29 1   
     4     2     3 2   
     5     2     4 1   
     6     2     9 1   
     7     4     5 1   
     8     5     6 1   
     9     5    30 1   
    10     5    31 1   
    11     6     7 1   
    12     6    32 1   
    13     6    33 1   
    14     7     8 1   
    15     7    34 1   
    16     7    35 1   
    17     8    36 1   
    18     8    37 1   
    19     9    10 1   
    20    10    11 1   
    21    10    38 1   
    22    10    39 1   
    23    11    12 1   
    24    11    17 1   
    25    11    40 1   
    26    12    13 1   
    27    12    14 1   
    28    12    41 1   
    29    13    42 1   
    30    14    15 1   
    31    14    16 1   
    32    14    43 1   
    33    15    44 1   
    34    16    17 1   
    35    16    18 1   
    36    16    45 1   
    37    18    19 1   
    38    18    22 1   
    39    19    20 2   
    40    19    46 1   
    41    20    21 1   
    42    21    22 ar  
    43    21    23 ar  
    44    22    27 ar  
    45    23    24 1   
    46    23    25 ar  
    47    24    47 1   
    48    24    48 1   
    49    25    26 ar  
    50    26    27 ar  
    51    26    49 1   
@<TRIPOS>SUBSTRUCTURE
     1 7MO         1 TEMP              0 ****  ****    0 ROOT
