@<TRIPOS>MOLECULE
7MO
   49    51     1     0     0
SMALL
abcg2


@<TRIPOS>ATOM
      1 N43         73.1730    17.0300    43.9130 n8         1 7MO      -1.162300
      2 P44         72.9350    15.4290    44.2410 p5         1 7MO       1.338100
      3 O69         71.7680    15.2200    45.1280 o          1 7MO      -0.564000
      4 O45         72.8850    14.7010    42.8170 os         1 7MO      -0.592400
      5 C46         71.6210    14.4020    42.2030 c3         1 7MO       0.225600
      6 C47         71.1300    13.0410    42.6490 c3         1 7MO      -0.126400
      7 C48         69.8200    12.6330    41.9960 c3         1 7MO       0.156800
      8 N49         69.3920    11.3340    42.5090 n8         1 7MO      -1.011200
      9 O50         74.3270    14.7700    44.7120 os         1 7MO      -0.599400
     10 C51         75.1320    15.3450    45.7350 c3         1 7MO       0.215600
     11 C52         75.3130    14.4030    46.9040 c5         1 7MO       0.148300
     12 C53         75.8400    13.0110    46.5540 c5         1 7MO       0.152300
     13 O54         77.2290    13.0420    46.4560 oh         1 7MO      -0.689000
     14 C55         75.2670    12.1620    47.6970 c5         1 7MO       0.093300
     15 O56         76.0760    12.3490    48.8220 oh         1 7MO      -0.688000
     16 C57         73.9040    12.8360    47.9070 c5         1 7MO       0.290300
     17 O68         74.0810    14.1880    47.5730 os         1 7MO      -0.428000
     18 N58         72.8290    12.2620    47.1220 na         1 7MO      -0.313300
     19 C67         72.8710    11.5020    45.9810 cc         1 7MO       0.386700
     20 N66         71.7000    11.2460    45.4850 nd         1 7MO      -0.543100
     21 C65         70.8220    11.8820    46.3260 ca         1 7MO      -0.091600
     22 C59         71.5040    12.5100    47.3540 ca         1 7MO       0.157500
     23 C63         69.4230    12.0500    46.3080 ca         1 7MO       0.449900
     24 N64         68.6380    11.5750    45.3370 nv         1 7MO      -1.061900
     25 N62         68.8690    12.7140    47.3340 nb         1 7MO      -0.310000
     26 C61         69.6500    13.2260    48.2790 ca         1 7MO       0.190900
     27 N60         70.9690    13.1960    48.3610 nb         1 7MO      -0.219000
     28 H1          72.9180    17.6920    44.6310 hn         1 7MO       0.472500
     29 H2          73.9960    17.3150    43.4010 hn         1 7MO       0.472500
     30 H3          71.8000    14.4260    41.1270 h1         1 7MO       0.045700
     31 H4          70.8830    15.1780    42.4270 h1         1 7MO       0.045700
     32 H5          70.9990    13.0450    43.7300 hc         1 7MO       0.075200
     33 H6          71.8960    12.2930    42.4230 hc         1 7MO       0.075200
     34 H7          69.9290    12.6420    40.9040 h1         1 7MO       0.030700
     35 H8          69.0440    13.3640    42.2380 h1         1 7MO       0.030700
     36 H9          68.5190    11.0650    42.0720 hn         1 7MO       0.403500
     37 H10         70.0650    10.6240    42.2430 hn         1 7MO       0.403500
     38 H12         76.1150    15.5620    45.3120 h1         1 7MO       0.046700
     39 H13         74.7200    16.2940    46.0930 h1         1 7MO       0.046700
     40 H14         76.0240    14.8900    47.5850 h1         1 7MO       0.084700
     41 H15         75.3850    12.6740    45.6150 h1         1 7MO       0.064700
     42 H16         77.5300    12.2340    46.0300 ho         1 7MO       0.512000
     43 H17         75.1730    11.1010    47.4380 h1         1 7MO       0.058700
     44 H18         75.7520    11.7860    49.5330 ho         1 7MO       0.510000
     45 H19         73.5860    12.7670    48.9500 h2         1 7MO       0.108700
     46 H20         73.7970    11.1370    45.5640 h5         1 7MO       0.052800
     47 H21         67.6680    11.8430    45.3730 hn         1 7MO       0.507000
     48 H22         69.0120    11.3760    44.3970 hn         1 7MO       0.507000
     49 H23         69.1340    13.7470    49.0790 h5         1 7MO       0.039100
@<TRIPOS>BOND
     1     1     2 1   
     2     1    28 1   
     3     1    29 1   
     4     2     3 2   
     5     2     4 1   
     6     2     9 1   
     7     4     5 1   
     8     5     6 1   
     9     5    30 1   
    10     5    31 1   
    11     6     7 1   
    12     6    32 1   
    13     6    33 1   
    14     7     8 1   
    15     7    34 1   
    16     7    35 1   
    17     8    36 1   
    18     8    37 1   
    19     9    10 1   
    20    10    11 1   
    21    10    38 1   
    22    10    39 1   
    23    11    12 1   
    24    11    17 1   
    25    11    40 1   
    26    12    13 1   
    27    12    14 1   
    28    12    41 1   
    29    13    42 1   
    30    14    15 1   
    31    14    16 1   
    32    14    43 1   
    33    15    44 1   
    34    16    17 1   
    35    16    18 1   
    36    16    45 1   
    37    18    19 1   
    38    18    22 1   
    39    19    20 2   
    40    19    46 1   
    41    20    21 1   
    42    21    22 ar  
    43    21    23 ar  
    44    22    27 ar  
    45    23    24 1   
    46    23    25 ar  
    47    24    47 1   
    48    24    48 1   
    49    25    26 ar  
    50    26    27 ar  
    51    26    49 1   
@<TRIPOS>SUBSTRUCTURE
     1 7MO         1 TEMP              0 ****  ****    0 ROOT
