@<TRIPOS>MOLECULE
7MP
   51    54     1     0     0
SMALL
No Charge or Current Charge


@<TRIPOS>ATOM
      1 OAK          3.8680     1.8820     1.9320 o          1 7MP      -0.428000
      2 CAH          3.9350     0.9630     1.1250 c          1 7MP       0.593000
      3 NAG          4.9460    -0.0210     1.2390 n          1 7MP      -0.270400
      4 CAT          5.9840     0.1160     2.3000 c3         1 7MP       0.077300
      5 C4           4.9660    -1.1620     0.3860 ca         1 7MP       0.288000
      6 N3           5.9190    -2.1000     0.5520 nb         1 7MP      -0.308000
      7 C2           5.8670    -3.1480    -0.2780 ca         1 7MP       0.473900
      8 NAS          6.8310    -4.0820    -0.1030 nv         1 7MP      -0.976900
      9 N1           4.9790    -3.3780    -1.2540 nb         1 7MP      -0.220000
     10 C6           4.0280    -2.4400    -1.4130 ca         1 7MP       0.263900
     11 C5           3.9850    -1.2950    -0.5960 ca         1 7MP      -0.384000
     12 CAJ          2.9570    -0.2780    -0.7600 cc         1 7MP       0.164600
     13 NAI          2.9870     0.8490     0.0690 n          1 7MP      -0.146200
     14 CAL          1.9200     1.8130    -0.0760 ca         1 7MP      -0.015400
     15 CAQ          2.1810     3.1830    -0.3410 ca         1 7MP      -0.071300
     16 CAR          3.5950     3.7320    -0.5270 c3         1 7MP      -0.054800
     17 CAP          1.1000     4.0720    -0.4890 ca         1 7MP      -0.062000
     18 CAO         -0.2240     3.6130    -0.4110 ca         1 7MP      -0.130000
     19 CAM          0.5830     1.3580    -0.0390 ca         1 7MP      -0.117000
     20 CAN         -0.4970     2.2510    -0.2030 ca         1 7MP       0.007000
     21 NAU         -1.8610     1.8520    -0.1480 ns         1 7MP      -0.141000
     22 CAV         -2.4680     0.6030    -0.1820 c          1 7MP       0.630700
     23 OAW         -1.8410    -0.4420    -0.3220 o          1 7MP      -0.576100
     24 CAX         -3.9800     0.5950    -0.0480 ca         1 7MP      -0.174600
     25 CBC         -4.6700    -0.6400    -0.0860 ca         1 7MP      -0.006000
     26 CAY         -4.7310     1.7850     0.1140 ca         1 7MP      -0.060000
     27 CAZ         -6.1290     1.7320     0.2280 ca         1 7MP      -0.117000
     28 CBA         -6.8020     0.5010     0.1880 ca         1 7MP      -0.025000
     29 CBB         -6.0750    -0.6980     0.0370 ca         1 7MP      -0.201300
     30 CBD         -6.7920    -2.0510    -0.0190 c3         1 7MP       0.361300
     31 FBE         -8.0220    -2.0150     0.5430 f          1 7MP      -0.106667
     32 FBF         -6.9540    -2.4680    -1.2940 f          1 7MP      -0.106667
     33 FBG         -6.1020    -3.0180     0.6290 f          1 7MP      -0.106667
     34 HAT1         6.0240     1.1350     2.7030 h1         1 7MP       0.083700
     35 HAT2         5.7660    -0.5800     3.1200 h1         1 7MP       0.083700
     36 HAT3         6.9760    -0.1160     1.8910 h1         1 7MP       0.083700
     37 HAS1         6.9880    -4.7520    -0.8510 hn         1 7MP       0.539500
     38 HAS2         7.6460    -3.8310     0.4480 hn         1 7MP       0.539500
     39 H6           3.2950    -2.6110    -2.2010 h4         1 7MP       0.055100
     40 HAJ          2.1630    -0.2390    -1.5010 h4         1 7MP       0.249000
     41 HAR1         4.0070     4.0950     0.4220 hc         1 7MP       0.054367
     42 HAR2         4.2810     2.9790    -0.9330 hc         1 7MP       0.054367
     43 HAR3         3.6040     4.5750    -1.2280 hc         1 7MP       0.054367
     44 HAP          1.2860     5.1270    -0.6810 ha         1 7MP       0.139000
     45 HAO         -1.0400     4.3210    -0.5340 ha         1 7MP       0.134000
     46 HAM          0.3990     0.3080     0.1650 ha         1 7MP       0.163000
     47 HNAU        -2.5070     2.6240    -0.0650 hn         1 7MP       0.168000
     48 HBC         -4.1100    -1.5650    -0.2160 ha         1 7MP       0.149000
     49 HAY         -4.2520     2.7610     0.1520 ha         1 7MP       0.117000
     50 HAZ         -6.6970     2.6520     0.3480 ha         1 7MP       0.135000
     51 HBA         -7.8870     0.4890     0.2720 ha         1 7MP       0.145000
@<TRIPOS>BOND
     1     1     2 2   
     2     2     3 1   
     3     2    13 1   
     4     3     4 1   
     5     3     5 2   
     6     4    34 1   
     7     4    35 1   
     8     4    36 1   
     9     5     6 ar  
    10     5    11 ar  
    11     6     7 ar  
    12     7     8 1   
    13     7     9 ar  
    14     8    37 1   
    15     8    38 1   
    16     9    10 ar  
    17    10    11 ar  
    18    10    39 1   
    19    11    12 2   
    20    12    13 1   
    21    12    40 1   
    22    13    14 1   
    23    14    15 ar  
    24    14    19 ar  
    25    15    16 1   
    26    15    17 ar  
    27    16    41 1   
    28    16    42 1   
    29    16    43 1   
    30    17    18 ar  
    31    17    44 1   
    32    18    20 ar  
    33    18    45 1   
    34    19    20 ar  
    35    19    46 1   
    36    20    21 1   
    37    21    22 1   
    38    21    47 1   
    39    22    23 2   
    40    22    24 1   
    41    24    25 ar  
    42    24    26 ar  
    43    25    29 ar  
    44    25    48 1   
    45    26    27 ar  
    46    26    49 1   
    47    27    28 ar  
    48    27    50 1   
    49    28    29 ar  
    50    28    51 1   
    51    29    30 1   
    52    30    31 1   
    53    30    32 1   
    54    30    33 1   
@<TRIPOS>SUBSTRUCTURE
     1 7MP         1 TEMP              0 ****  ****    0 ROOT
