@<TRIPOS>MOLECULE
7MP
   51    54     1     0     0
SMALL
abcg2


@<TRIPOS>ATOM
      1 OAK          3.0910     1.4910     2.0220 o          1 7MP      -0.428000
      2 CAH          3.4620     0.7170     1.1820 c          1 7MP       0.593000
      3 NAG          4.4600    -0.2070     1.3990 n          1 7MP      -0.270400
      4 CAT          5.0560    -0.1970     2.7360 c3         1 7MP       0.077300
      5 C4           4.8840    -1.0790     0.4430 ca         1 7MP       0.288000
      6 N3           5.8380    -1.9290     0.7100 nb         1 7MP      -0.308000
      7 C2           6.2070    -2.7570    -0.2780 ca         1 7MP       0.473900
      8 NAS          7.1650    -3.6190    -0.0290 nv         1 7MP      -0.976900
      9 N1           5.6800    -2.7950    -1.5390 nb         1 7MP      -0.220000
     10 C6           4.7370    -1.9520    -1.7950 ca         1 7MP       0.263900
     11 C5           4.2620    -1.0280    -0.8310 ca         1 7MP      -0.384000
     12 CAJ          3.2650    -0.1170    -1.0600 cc         1 7MP       0.164600
     13 NAI          2.8820     0.7170    -0.1010 n          1 7MP      -0.146200
     14 CAL          1.8280     1.6670    -0.3420 ca         1 7MP      -0.015400
     15 CAQ          2.1650     2.9340    -0.7990 ca         1 7MP      -0.071300
     16 CAR          3.5830     3.3440    -1.0530 c3         1 7MP      -0.054800
     17 CAP          1.0970     3.7990    -1.0230 ca         1 7MP      -0.062000
     18 CAO         -0.2110     3.4120    -0.8060 ca         1 7MP      -0.130000
     19 CAM          0.5310     1.2410    -0.1150 ca         1 7MP      -0.117000
     20 CAN         -0.5160     2.1270    -0.3530 ca         1 7MP       0.007000
     21 NAU         -1.8640     1.8250    -0.1580 ns         1 7MP      -0.141000
     22 CAV         -2.4260     0.6290     0.1510 c          1 7MP       0.630700
     23 OAW         -1.7980    -0.4070     0.2740 o          1 7MP      -0.576100
     24 CAX         -3.9110     0.6560     0.3200 ca         1 7MP      -0.174600
     25 CBC         -4.6100    -0.5120     0.0440 ca         1 7MP      -0.006000
     26 CAY         -4.6000     1.7750     0.7800 ca         1 7MP      -0.060000
     27 CAZ         -5.9750     1.7270     0.9450 ca         1 7MP      -0.117000
     28 CBA         -6.6760     0.5690     0.6480 ca         1 7MP      -0.025000
     29 CBB         -5.9890    -0.5520     0.1990 ca         1 7MP      -0.201300
     30 CBD         -6.7170    -1.8110    -0.1580 c3         1 7MP       0.361300
     31 FBE         -7.9650    -1.8310     0.3150 f          1 7MP      -0.106667
     32 FBF         -6.8010    -1.9690    -1.4870 f          1 7MP      -0.106667
     33 FBG         -6.0960    -2.8970     0.3180 f          1 7MP      -0.106667
     34 HAT1         5.5150     0.7690     2.9270 h1         1 7MP       0.083700
     35 HAT2         4.2900    -0.3920     3.4820 h1         1 7MP       0.083700
     36 HAT3         5.8130    -0.9700     2.7850 h1         1 7MP       0.083700
     37 HAS1         7.4730    -4.2580    -0.7430 hn         1 7MP       0.539500
     38 HAS2         7.6060    -3.6560     0.8760 hn         1 7MP       0.539500
     39 H6           4.3000    -1.9600    -2.7890 h4         1 7MP       0.055100
     40 HAJ          2.7600    -0.0400    -2.0140 h4         1 7MP       0.249000
     41 HAR1         4.2030     3.2600    -0.1590 hc         1 7MP       0.054367
     42 HAR2         4.0480     2.7340    -1.8300 hc         1 7MP       0.054367
     43 HAR3         3.6280     4.3800    -1.3830 hc         1 7MP       0.054367
     44 HAP          1.2950     4.8020    -1.3790 ha         1 7MP       0.139000
     45 HAO         -1.0100     4.1200    -0.9940 ha         1 7MP       0.134000
     46 HAM          0.3570     0.2380     0.2390 ha         1 7MP       0.163000
     47 HNAU        -2.4940     2.5890    -0.3490 hn         1 7MP       0.168000
     48 HBC         -4.0680    -1.3840    -0.3000 ha         1 7MP       0.149000
     49 HAY         -4.0750     2.6850     1.0450 ha         1 7MP       0.117000
     50 HAZ         -6.5030     2.5960     1.3120 ha         1 7MP       0.135000
     51 HBA         -7.7490     0.5520     0.7770 ha         1 7MP       0.145000
@<TRIPOS>BOND
     1     1     2 2   
     2     2     3 1   
     3     2    13 1   
     4     3     4 1   
     5     3     5 2   
     6     4    34 1   
     7     4    35 1   
     8     4    36 1   
     9     5     6 ar  
    10     5    11 ar  
    11     6     7 ar  
    12     7     8 1   
    13     7     9 ar  
    14     8    37 1   
    15     8    38 1   
    16     9    10 ar  
    17    10    11 ar  
    18    10    39 1   
    19    11    12 2   
    20    12    13 1   
    21    12    40 1   
    22    13    14 1   
    23    14    15 ar  
    24    14    19 ar  
    25    15    16 1   
    26    15    17 ar  
    27    16    41 1   
    28    16    42 1   
    29    16    43 1   
    30    17    18 ar  
    31    17    44 1   
    32    18    20 ar  
    33    18    45 1   
    34    19    20 ar  
    35    19    46 1   
    36    20    21 1   
    37    21    22 1   
    38    21    47 1   
    39    22    23 2   
    40    22    24 1   
    41    24    25 ar  
    42    24    26 ar  
    43    25    29 ar  
    44    25    48 1   
    45    26    27 ar  
    46    26    49 1   
    47    27    28 ar  
    48    27    50 1   
    49    28    29 ar  
    50    28    51 1   
    51    29    30 1   
    52    30    31 1   
    53    30    32 1   
    54    30    33 1   
@<TRIPOS>SUBSTRUCTURE
     1 7MP         1 TEMP              0 ****  ****    0 ROOT
