@<TRIPOS>MOLECULE
7MR
   42    43     1     0     0
SMALL
No Charge or Current Charge


@<TRIPOS>ATOM
      1 CAI          4.1580     0.0320    -6.9750 ca         1 7MR      -0.111500
      2 CAH          4.3560     0.8410    -8.1090 ca         1 7MR      -0.099000
      3 CAG          4.6590     0.2520    -9.3490 ca         1 7MR      -0.103000
      4 CAR          4.7690    -1.1460    -9.4570 ca         1 7MR      -0.099000
      5 CAS          4.5710    -1.9550    -8.3240 ca         1 7MR      -0.111500
      6 CAT          4.2550    -1.3700    -7.0860 ca         1 7MR       0.079100
      7 OAU          4.0790    -2.1850    -5.9900 os         1 7MR      -0.243200
      8 CAV          3.1350    -1.9390    -5.0190 ca         1 7MR       0.207100
      9 CAJ          1.8570    -1.4540    -5.3530 ca         1 7MR      -0.185500
     10 CAK          0.9050    -1.2210    -4.3460 ca         1 7MR       0.022500
     11 CAW          3.4530    -2.2090    -3.6800 ca         1 7MR      -0.185500
     12 CAX          2.5080    -1.9790    -2.6660 ca         1 7MR       0.022500
     13 CAL          1.2310    -1.4840    -3.0000 ca         1 7MR      -0.324500
     14 SAM          0.0180    -1.1730    -1.7050 sy         1 7MR       1.059500
     15 OAY         -1.3240    -1.2270    -2.2990 o          1 7MR      -0.517500
     16 OAC          0.3680    -1.9910    -0.5390 o          1 7MR      -0.517500
     17 CAN          0.3420     0.5570    -1.2650 c3         1 7MR      -0.318400
     18 CAO         -0.7450     1.2870    -0.4030 c3         1 7MR       0.080200
     19 CAP         -0.2230     2.7100     0.0410 c3         1 7MR       0.316000
     20 FBA          0.8940     2.6180     0.8010 f          1 7MR      -0.106333
     21 FAF         -1.1550     3.3730     0.7660 f          1 7MR      -0.106333
     22 FAQ          0.0840     3.4820    -1.0300 f          1 7MR      -0.106333
     23 NAZ         -1.9280     1.4480    -1.3260 n8         1 7MR      -1.007200
     24 CAE         -1.1120     0.5120     0.9350 c          1 7MR       0.563100
     25 OAB         -2.2760     0.3630     1.2930 o          1 7MR      -0.546100
     26 NAD         -0.0550    -0.0440     1.6560 ns         1 7MR      -0.358400
     27 OAA         -0.2620    -0.5720     2.9870 oh         1 7MR      -0.405100
     28 HAI          3.9350     0.4940    -6.0170 ha         1 7MR       0.131000
     29 HAH          4.2780     1.9230    -8.0250 ha         1 7MR       0.122500
     30 HAG          4.8140     0.8790   -10.2250 ha         1 7MR       0.122000
     31 HAR          5.0090    -1.6000   -10.4160 ha         1 7MR       0.122500
     32 HAS          4.6580    -3.0360    -8.4060 ha         1 7MR       0.131000
     33 HAJ          1.5990    -1.2620    -6.3910 ha         1 7MR       0.139500
     34 HAK         -0.0780    -0.8400    -4.6180 ha         1 7MR       0.138500
     35 HAW          4.4380    -2.5920    -3.4280 ha         1 7MR       0.139500
     36 HAX          2.7750    -2.1860    -1.6300 ha         1 7MR       0.138500
     37 HAN1         0.4640     1.0860    -2.2160 h1         1 7MR       0.114200
     38 HAN2         1.3140     0.5580    -0.7610 h1         1 7MR       0.114200
     39 HAZ1        -2.7670     1.6360    -0.7600 hn         1 7MR       0.449000
     40 HAZ2        -2.1490     0.5370    -1.7550 hn         1 7MR       0.449000
     41 HNAD         0.9060     0.1860     1.4100 hn         1 7MR       0.343500
     42 HOAA         0.1260    -1.4780     2.9380 ho         1 7MR       0.449000
@<TRIPOS>BOND
     1     1     2 ar  
     2     1     6 ar  
     3     1    28 1   
     4     2     3 ar  
     5     2    29 1   
     6     3     4 ar  
     7     3    30 1   
     8     4     5 ar  
     9     4    31 1   
    10     5     6 ar  
    11     5    32 1   
    12     6     7 1   
    13     7     8 1   
    14     8     9 ar  
    15     8    11 ar  
    16     9    10 ar  
    17     9    33 1   
    18    10    13 ar  
    19    10    34 1   
    20    11    12 ar  
    21    11    35 1   
    22    12    13 ar  
    23    12    36 1   
    24    13    14 1   
    25    14    15 2   
    26    14    16 2   
    27    14    17 1   
    28    17    18 1   
    29    17    37 1   
    30    17    38 1   
    31    18    19 1   
    32    18    23 1   
    33    18    24 1   
    34    19    20 1   
    35    19    21 1   
    36    19    22 1   
    37    23    39 1   
    38    23    40 1   
    39    24    25 2   
    40    24    26 1   
    41    26    27 1   
    42    26    41 1   
    43    27    42 1   
@<TRIPOS>SUBSTRUCTURE
     1 7MR         1 TEMP              0 ****  ****    0 ROOT
