@<TRIPOS>MOLECULE
7MR
   42    43     1     0     0
SMALL
bcc


@<TRIPOS>ATOM
      1 CAI          4.8000     0.1330    -7.1610 ca         1 7MR      -0.129500
      2 CAH          4.8410     0.5570    -8.4820 ca         1 7MR      -0.117000
      3 CAG          4.5470    -0.3270    -9.5120 ca         1 7MR      -0.121000
      4 CAR          4.2110    -1.6430    -9.2200 ca         1 7MR      -0.117000
      5 CAS          4.1640    -2.0780    -7.9020 ca         1 7MR      -0.129500
      6 CAT          4.4620    -1.1830    -6.8880 ca         1 7MR       0.079100
      7 OAU          4.4620    -1.6270    -5.5820 os         1 7MR      -0.243200
      8 CAV          3.3690    -1.4400    -4.8160 ca         1 7MR       0.207100
      9 CAJ          2.1840    -0.8790    -5.2860 ca         1 7MR      -0.203500
     10 CAK          1.1130    -0.7280    -4.4230 ca         1 7MR       0.004500
     11 CAW          3.4780    -1.8540    -3.4870 ca         1 7MR      -0.203500
     12 CAX          2.4090    -1.7040    -2.6300 ca         1 7MR       0.004500
     13 CAL          1.2290    -1.1370    -3.1020 ca         1 7MR      -0.324500
     14 SAM         -0.1320    -0.9280    -2.0090 sy         1 7MR       1.090300
     15 OAY         -1.3640    -0.8770    -2.7960 o          1 7MR      -0.588300
     16 OAC         -0.0320    -1.9060    -0.9290 o          1 7MR      -0.588300
     17 CAN          0.1700     0.7190    -1.3250 c3         1 7MR      -0.207600
     18 CAO         -0.8740     1.1660    -0.2900 c3         1 7MR       0.080200
     19 CAP         -0.4230     2.5270     0.2800 c3         1 7MR       0.679900
     20 FBA          0.7900     2.4830     0.8480 f          1 7MR      -0.227633
     21 FAF         -1.2820     2.9390     1.2160 f          1 7MR      -0.227633
     22 FAQ         -0.3700     3.4630    -0.6630 f          1 7MR      -0.227633
     23 NAZ         -2.1380     1.4130    -0.9270 n8         1 7MR      -0.896800
     24 CAE         -1.0060     0.1390     0.8850 c          1 7MR       0.630100
     25 OAB         -2.0900    -0.3260     1.1670 o          1 7MR      -0.546100
     26 NAD          0.1250    -0.1590     1.5350 ns         1 7MR      -0.425400
     27 OAA          0.1080    -1.0810     2.5320 oh         1 7MR      -0.366100
     28 HAI          5.0320     0.8170    -6.3540 ha         1 7MR       0.149000
     29 HAH          5.1060     1.5820    -8.7050 ha         1 7MR       0.140500
     30 HAG          4.5830     0.0070   -10.5410 ha         1 7MR       0.140000
     31 HAR          3.9850    -2.3360   -10.0190 ha         1 7MR       0.140500
     32 HAS          3.9050    -3.1030    -7.6660 ha         1 7MR       0.149000
     33 HAJ          2.0790    -0.5620    -6.3140 ha         1 7MR       0.157500
     34 HAK          0.1950    -0.2940    -4.7950 ha         1 7MR       0.156500
     35 HAW          4.4020    -2.2940    -3.1350 ha         1 7MR       0.157500
     36 HAX          2.5020    -2.0320    -1.6030 ha         1 7MR       0.156500
     37 HAN1         0.1710     1.4010    -2.1770 h1         1 7MR       0.114200
     38 HAN2         1.1830     0.6920    -0.9230 h1         1 7MR       0.114200
     39 HAZ1        -2.8960     1.3510    -0.2600 hn         1 7MR       0.393800
     40 HAZ2        -2.3300     0.7330    -1.6500 hn         1 7MR       0.393800
     41 HNAD         1.0460     0.1520     1.2650 hn         1 7MR       0.343500
     42 HOAA         0.1690    -1.9480     2.1040 ho         1 7MR       0.410000
@<TRIPOS>BOND
     1     1     2 ar  
     2     1     6 ar  
     3     1    28 1   
     4     2     3 ar  
     5     2    29 1   
     6     3     4 ar  
     7     3    30 1   
     8     4     5 ar  
     9     4    31 1   
    10     5     6 ar  
    11     5    32 1   
    12     6     7 1   
    13     7     8 1   
    14     8     9 ar  
    15     8    11 ar  
    16     9    10 ar  
    17     9    33 1   
    18    10    13 ar  
    19    10    34 1   
    20    11    12 ar  
    21    11    35 1   
    22    12    13 ar  
    23    12    36 1   
    24    13    14 1   
    25    14    15 2   
    26    14    16 2   
    27    14    17 1   
    28    17    18 1   
    29    17    37 1   
    30    17    38 1   
    31    18    19 1   
    32    18    23 1   
    33    18    24 1   
    34    19    20 1   
    35    19    21 1   
    36    19    22 1   
    37    23    39 1   
    38    23    40 1   
    39    24    25 2   
    40    24    26 1   
    41    26    27 1   
    42    26    41 1   
    43    27    42 1   
@<TRIPOS>SUBSTRUCTURE
     1 7MR         1 TEMP              0 ****  ****    0 ROOT
