@<TRIPOS>MOLECULE
7MS
   55    54     1     0     0
SMALL
abcg2


@<TRIPOS>ATOM
      1 C1          -9.5730     1.6230    -1.7640 c3         1 7MS      -0.088100
      2 C2          -8.8680     0.3420    -1.3410 c3         1 7MS      -0.107400
      3 C3          -7.7010     0.5840    -0.3890 c3         1 7MS       0.135300
      4 C4          -6.9050    -0.6960    -0.1060 c3         1 7MS       0.141300
      5 C5          -5.6720    -0.4180     0.7580 c3         1 7MS      -0.070200
      6 C6          -4.8010    -1.6240     0.9240 c2         1 7MS      -0.226200
      7 C7          -3.5070    -1.7340     0.6290 c2         1 7MS      -0.202200
      8 C8          -2.5980    -0.6710     0.0810 c3         1 7MS      -0.011000
      9 C9          -1.6360    -0.2030     1.1360 c2         1 7MS      -0.232200
     10 C10         -0.3060    -0.2550     1.1070 c2         1 7MS      -0.197200
     11 C11          0.5660    -0.7560    -0.0090 c3         1 7MS      -0.009000
     12 C12          1.2370     0.3990    -0.6950 c2         1 7MS      -0.245200
     13 C13          2.5310     0.7150    -0.6780 c2         1 7MS      -0.186200
     14 O4          10.4540     2.7740     1.6330 o          1 7MS      -0.742500
     15 C20          9.9130     1.7810     1.1000 c          1 7MS       0.717000
     16 O3          10.3920     0.6320     1.0270 o          1 7MS      -0.742500
     17 C19          8.5280     2.0270     0.4760 c3         1 7MS      -0.206400
     18 C18          7.8390     0.8110    -0.1200 c3         1 7MS      -0.049400
     19 C17          6.4790     1.1590    -0.7300 c3         1 7MS      -0.061200
     20 C16          5.8100    -0.0290    -1.3460 c2         1 7MS      -0.175200
     21 C15          4.6220    -0.5450    -1.0340 c2         1 7MS      -0.259200
     22 C14          3.6520    -0.0250    -0.0090 c3         1 7MS      -0.009000
     23 O2          -7.7140    -1.7140     0.4520 oh         1 7MS      -0.660000
     24 H1          -9.9980     2.1530    -0.9120 hc         1 7MS       0.035033
     25 H2          -8.8840     2.3030    -2.2690 hc         1 7MS       0.035033
     26 H3         -10.3890     1.4080    -2.4550 hc         1 7MS       0.035033
     27 H4          -9.5830    -0.3430    -0.8750 hc         1 7MS       0.049700
     28 H5          -8.4900    -0.1750    -2.2270 hc         1 7MS       0.049700
     29 H6          -7.0100     1.2870    -0.8690 h1         1 7MS       0.073700
     30 H8          -6.5660    -1.0830    -1.0730 h1         1 7MS       0.076700
     31 H9          -5.1150     0.4110     0.3170 hc         1 7MS       0.056700
     32 H10         -6.0030    -0.0700     1.7430 hc         1 7MS       0.056700
     33 H11         -5.2920    -2.5010     1.3340 ha         1 7MS       0.171000
     34 H13         -3.0230    -2.6860     0.8270 ha         1 7MS       0.170000
     35 H15         -2.0610    -1.0690    -0.7830 hc         1 7MS       0.049200
     36 H16         -3.1720     0.1850    -0.2810 hc         1 7MS       0.049200
     37 H17         -2.1050     0.2150     2.0230 ha         1 7MS       0.165000
     38 H18          0.2330     0.1390     1.9630 ha         1 7MS       0.172000
     39 H19          1.3020    -1.4540     0.3940 hc         1 7MS       0.048200
     40 H20         -0.0230    -1.3130    -0.7410 hc         1 7MS       0.048200
     41 H21          0.5640     1.0560    -1.2380 ha         1 7MS       0.160000
     42 H23          2.8380     1.6020    -1.2260 ha         1 7MS       0.169000
     43 H26          7.8830     2.4770     1.2400 hc         1 7MS       0.015200
     44 H27          8.6350     2.8020    -0.2920 hc         1 7MS       0.015200
     45 H28          8.4730     0.3610    -0.8890 hc         1 7MS       0.040700
     46 H29          7.7010     0.0440     0.6470 hc         1 7MS       0.040700
     47 H30          5.8400     1.6200     0.0270 hc         1 7MS       0.034700
     48 H31          6.6270     1.9210    -1.5040 hc         1 7MS       0.034700
     49 H32          6.3810    -0.5220    -2.1300 ha         1 7MS       0.161000
     50 H33          4.2800    -1.4140    -1.5890 ha         1 7MS       0.154000
     51 H34          4.1560     0.6470     0.6910 hc         1 7MS       0.051700
     52 H35          3.2700    -0.8590     0.5830 hc         1 7MS       0.051700
     53 H36         -7.9160    -1.4780     1.3630 ho         1 7MS       0.438000
     54 O1          -8.1210     1.2130     0.8100 oh         1 7MS      -0.660000
     55 H7          -8.9240     0.7810     1.1190 ho         1 7MS       0.437000
@<TRIPOS>BOND
     1     1     2 1   
     2     1    24 1   
     3     1    25 1   
     4     1    26 1   
     5     2     3 1   
     6     2    27 1   
     7     2    28 1   
     8     3     4 1   
     9     3    29 1   
    10     3    54 1   
    11     4     5 1   
    12     4    23 1   
    13     4    30 1   
    14     5     6 1   
    15     5    31 1   
    16     5    32 1   
    17     6     7 2   
    18     6    33 1   
    19     7     8 1   
    20     7    34 1   
    21     8     9 1   
    22     8    35 1   
    23     8    36 1   
    24     9    10 2   
    25     9    37 1   
    26    10    11 1   
    27    10    38 1   
    28    11    12 1   
    29    11    39 1   
    30    11    40 1   
    31    12    13 2   
    32    12    41 1   
    33    13    22 1   
    34    13    42 1   
    35    14    15 1   
    36    15    16 1   
    37    15    17 1   
    38    17    18 1   
    39    17    43 1   
    40    17    44 1   
    41    18    19 1   
    42    18    45 1   
    43    18    46 1   
    44    19    20 1   
    45    19    47 1   
    46    19    48 1   
    47    20    21 2   
    48    20    49 1   
    49    21    22 1   
    50    21    50 1   
    51    22    51 1   
    52    22    52 1   
    53    23    53 1   
    54    54    55 1   
@<TRIPOS>SUBSTRUCTURE
     1 7MS         1 TEMP              0 ****  ****    0 ROOT
