@<TRIPOS>MOLECULE
7MS
   55    54     1     0     0
SMALL
No Charge or Current Charge


@<TRIPOS>ATOM
      1 C1          -7.9730    -0.3010    -3.0030 c3         1 7MS      -0.088100
      2 C2          -7.2240    -1.0640    -1.8880 c3         1 7MS      -0.107400
      3 C3          -7.0230    -0.2500    -0.5840 c3         1 7MS       0.135300
      4 C4          -6.1270    -0.9860     0.4630 c3         1 7MS       0.141300
      5 C5          -5.7110    -0.0780     1.6480 c3         1 7MS      -0.070200
      6 C6          -4.6950    -0.7340     2.5720 c2         1 7MS      -0.226200
      7 C7          -3.3540    -0.6650     2.4870 c2         1 7MS      -0.202200
      8 C8          -2.5290     0.0490     1.4320 c3         1 7MS      -0.011000
      9 C9          -1.6720     1.1320     2.0580 c2         1 7MS      -0.232200
     10 C10         -0.4680     1.5580     1.6350 c2         1 7MS      -0.197200
     11 C11          0.3010     1.0690     0.4220 c3         1 7MS      -0.009000
     12 C12          0.9860     2.2240    -0.2860 c2         1 7MS      -0.245200
     13 C13          2.2090     2.2220    -0.8470 c2         1 7MS      -0.186200
     14 O4           7.6210    -2.0600     1.7150 o          1 7MS      -0.742500
     15 C20          8.2780    -1.4760     0.8660 c          1 7MS       0.717000
     16 O3           9.2260    -1.9780     0.2820 o          1 7MS      -0.742500
     17 C19          7.8520    -0.0510     0.4700 c3         1 7MS      -0.206400
     18 C18          6.8240    -0.1040    -0.6870 c3         1 7MS      -0.049400
     19 C17          6.3510     1.2920    -1.1480 c3         1 7MS      -0.061200
     20 C16          5.3500     1.2130    -2.2850 c2         1 7MS      -0.175200
     21 C15          4.0110     1.1300    -2.1870 c2         1 7MS      -0.259200
     22 C14          3.1790     1.0590    -0.9190 c3         1 7MS      -0.009000
     23 O2          -6.8420    -2.1250     0.9660 oh         1 7MS      -0.660000
     24 H1          -9.0010    -0.0660    -2.7030 hc         1 7MS       0.035033
     25 H2          -7.4580     0.6360    -3.2470 hc         1 7MS       0.035033
     26 H3          -8.0190    -0.9100    -3.9140 hc         1 7MS       0.035033
     27 H4          -7.7620    -1.9950    -1.6680 hc         1 7MS       0.049700
     28 H5          -6.2400    -1.3570    -2.2750 hc         1 7MS       0.049700
     29 H6          -6.5150     0.6890    -0.8520 h1         1 7MS       0.073700
     30 H8          -5.2060    -1.3100    -0.0450 h1         1 7MS       0.076700
     31 H9          -5.3080     0.8600     1.2490 hc         1 7MS       0.056700
     32 H10         -6.6010     0.2100     2.2220 hc         1 7MS       0.056700
     33 H11         -5.1520    -1.3050     3.3830 ha         1 7MS       0.171000
     34 H13         -2.7450    -1.1870     3.2290 ha         1 7MS       0.170000
     35 H15         -1.9010    -0.6880     0.9150 hc         1 7MS       0.049200
     36 H16         -3.1660     0.4900     0.6580 hc         1 7MS       0.049200
     37 H17         -2.1160     1.5830     2.9490 ha         1 7MS       0.165000
     38 H18          0.0470     2.3440     2.1930 ha         1 7MS       0.172000
     39 H19          1.0340     0.3200     0.7440 hc         1 7MS       0.048200
     40 H20         -0.3670     0.5630    -0.2840 hc         1 7MS       0.048200
     41 H21          0.3870     3.1360    -0.3180 ha         1 7MS       0.160000
     42 H23          2.5820     3.1340    -1.3180 ha         1 7MS       0.169000
     43 H26          7.3390     0.4430     1.3050 hc         1 7MS       0.015200
     44 H27          8.7100     0.5130     0.0830 hc         1 7MS       0.015200
     45 H28          7.2660    -0.6310    -1.5410 hc         1 7MS       0.040700
     46 H29          5.9520    -0.6890    -0.3690 hc         1 7MS       0.040700
     47 H30          5.9230     1.8280    -0.2920 hc         1 7MS       0.034700
     48 H31          7.2200     1.8810    -1.4650 hc         1 7MS       0.034700
     49 H32          5.8130     1.2430    -3.2740 ha         1 7MS       0.161000
     50 H33          3.4130     1.0860    -3.0990 ha         1 7MS       0.154000
     51 H34          3.8130     1.0580    -0.0260 hc         1 7MS       0.051700
     52 H35          2.6390     0.1050    -0.9030 hc         1 7MS       0.051700
     53 H36         -7.7810    -1.8310     0.9630 ho         1 7MS       0.438000
     54 O1          -8.3090     0.0330    -0.0000 oh         1 7MS      -0.660000
     55 H7          -8.8100     0.5700    -0.6520 ho         1 7MS       0.437000
@<TRIPOS>BOND
     1     1     2 1   
     2     1    24 1   
     3     1    25 1   
     4     1    26 1   
     5     2     3 1   
     6     2    27 1   
     7     2    28 1   
     8     3     4 1   
     9     3    29 1   
    10     3    54 1   
    11     4     5 1   
    12     4    23 1   
    13     4    30 1   
    14     5     6 1   
    15     5    31 1   
    16     5    32 1   
    17     6     7 2   
    18     6    33 1   
    19     7     8 1   
    20     7    34 1   
    21     8     9 1   
    22     8    35 1   
    23     8    36 1   
    24     9    10 2   
    25     9    37 1   
    26    10    11 1   
    27    10    38 1   
    28    11    12 1   
    29    11    39 1   
    30    11    40 1   
    31    12    13 2   
    32    12    41 1   
    33    13    22 1   
    34    13    42 1   
    35    14    15 1   
    36    15    16 1   
    37    15    17 1   
    38    17    18 1   
    39    17    43 1   
    40    17    44 1   
    41    18    19 1   
    42    18    45 1   
    43    18    46 1   
    44    19    20 1   
    45    19    47 1   
    46    19    48 1   
    47    20    21 2   
    48    20    49 1   
    49    21    22 1   
    50    21    50 1   
    51    22    51 1   
    52    22    52 1   
    53    23    53 1   
    54    54    55 1   
@<TRIPOS>SUBSTRUCTURE
     1 7MS         1 TEMP              0 ****  ****    0 ROOT
