@<TRIPOS>MOLECULE
7MU
   18    18     1     0     0
SMALL
No Charge or Current Charge


@<TRIPOS>ATOM
      1 C01          4.3940     0.2290    -0.0040 c3         1 7MU       0.096300
      2 N02          3.0070    -0.2410    -0.0030 ns         1 7MU      -0.485900
      3 C03          1.8940     0.5790    -0.0010 c          1 7MU       0.502600
      4 O04          2.0090     1.8010    -0.0010 o          1 7MU      -0.603100
      5 C05          0.5410    -0.1440    -0.0000 ca         1 7MU       0.296500
      6 N06          0.5170    -1.5130    -0.0010 nb         1 7MU      -0.676000
      7 C07         -0.6810    -2.1430     0.0000 ca         1 7MU       0.345900
      8 C08         -1.9010    -1.4550     0.0010 ca         1 7MU      -0.144000
      9 C09         -1.8850    -0.0560     0.0020 ca         1 7MU       0.141000
     10 C10         -0.6520     0.6090     0.0010 ca         1 7MU      -0.100000
     11 Cl          -3.3900     0.8540     0.0040 cl         1 7MU      -0.174000
     12 H1           5.0730    -0.6330    -0.0050 h1         1 7MU       0.042033
     13 H2           4.5780     0.8360    -0.8990 h1         1 7MU       0.042033
     14 H3           4.5800     0.8340     0.8930 h1         1 7MU       0.042033
     15 H4           2.8190    -1.2400    -0.0030 hn         1 7MU       0.343500
     16 H5          -0.6580    -3.2320    -0.0000 h4         1 7MU       0.027100
     17 H6          -2.8390    -2.0020     0.0020 ha         1 7MU       0.141000
     18 H7          -0.6180     1.6940     0.0010 ha         1 7MU       0.165000
@<TRIPOS>BOND
     1     1     2 1   
     2     1    12 1   
     3     1    13 1   
     4     1    14 1   
     5     2     3 1   
     6     2    15 1   
     7     3     4 2   
     8     3     5 1   
     9     5     6 ar  
    10     5    10 ar  
    11     6     7 ar  
    12     7     8 ar  
    13     7    16 1   
    14     8     9 ar  
    15     8    17 1   
    16     9    10 ar  
    17     9    11 1   
    18    10    18 1   
@<TRIPOS>SUBSTRUCTURE
     1 7MU         1 TEMP              0 ****  ****    0 ROOT
