@<TRIPOS>MOLECULE
7MU
   18    18     1     0     0
SMALL
bcc


@<TRIPOS>ATOM
      1 C01          4.2950     0.2210    -0.0040 c3         1 7MU       0.096300
      2 N02          2.9380    -0.2680     0.0010 ns         1 7MU      -0.552900
      3 C03          1.8830     0.5450    -0.0020 c          1 7MU       0.569600
      4 O04          1.9570     1.7670    -0.0050 o          1 7MU      -0.603100
      5 C05          0.5480    -0.1500    -0.0000 ca         1 7MU       0.361800
      6 N06          0.5430    -1.4770    -0.0110 nb         1 7MU      -0.676000
      7 C07         -0.6240    -2.1010    -0.0130 ca         1 7MU       0.411200
      8 C08         -1.8430    -1.4380    -0.0030 ca         1 7MU      -0.227300
      9 C09         -1.8180    -0.0540     0.0100 ca         1 7MU       0.049400
     10 C10         -0.6070     0.6170     0.0110 ca         1 7MU      -0.183300
     11 CL          -3.2910     0.8360     0.0260 cl         1 7MU      -0.082400
     12 H1           4.9660    -0.6300     0.0580 h1         1 7MU       0.042033
     13 H2           4.5210     0.7730    -0.9170 h1         1 7MU       0.042033
     14 H3           4.4860     0.8750     0.8470 h1         1 7MU       0.042033
     15 H4           2.7660    -1.2620    -0.0020 hn         1 7MU       0.343500
     16 H5          -0.6020    -3.1840    -0.0230 h4         1 7MU       0.027100
     17 H6          -2.7710    -1.9920    -0.0060 ha         1 7MU       0.159000
     18 H7          -0.5570     1.6960     0.0210 ha         1 7MU       0.183000
@<TRIPOS>BOND
     1     1     2 1   
     2     1    12 1   
     3     1    13 1   
     4     1    14 1   
     5     2     3 1   
     6     2    15 1   
     7     3     4 2   
     8     3     5 1   
     9     5     6 ar  
    10     5    10 ar  
    11     6     7 ar  
    12     7     8 ar  
    13     7    16 1   
    14     8     9 ar  
    15     8    17 1   
    16     9    10 ar  
    17     9    11 1   
    18    10    18 1   
@<TRIPOS>SUBSTRUCTURE
     1 7MU         1 TEMP              0 ****  ****    0 ROOT
