@<TRIPOS>MOLECULE
7MV
   46    49     1     0     0
SMALL
No Charge or Current Charge


@<TRIPOS>ATOM
      1 C4          -5.2370     0.5700    -1.0020 c3         1 7MV       0.144300
      2 C5          -6.2070    -3.1210    -0.6230 ca         1 7MV      -0.108500
      3 C6          -6.8750    -3.1100     0.6130 ca         1 7MV      -0.111000
      4 C1          -5.8150    -0.7190    -0.4380 ca         1 7MV      -0.102300
      5 C3          -5.6780    -1.9280    -1.1470 ca         1 7MV      -0.103500
      6 C2          -6.4840    -0.7150     0.8020 ca         1 7MV      -0.103500
      7 C19          3.0710     1.3510     1.8590 c3         1 7MV       0.124900
      8 C18          2.6800     3.4600     0.4160 cc         1 7MV      -0.165100
      9 C20          3.4860     0.0470     1.1770 ca         1 7MV      -0.086300
     10 C23          4.1390    -1.2130    -0.8120 ca         1 7MV       0.183000
     11 C21          3.7640    -0.0030    -0.2070 ca         1 7MV      -0.125000
     12 C15          4.2460    -2.3880    -0.0430 ca         1 7MV       0.073000
     13 C22          3.6010    -1.1320     1.9420 ca         1 7MV      -0.111000
     14 C17          1.5680     3.8840    -0.2990 cd         1 7MV      -0.220200
     15 C16          0.1420     0.8700     1.0170 ca         1 7MV      -0.131000
     16 C7          -7.0130    -1.9070     1.3260 ca         1 7MV      -0.108500
     17 C8           3.9780    -2.3440     1.3350 ca         1 7MV      -0.077000
     18 C9          -3.0740     1.8360    -0.9050 c          1 7MV       0.618700
     19 C10         -1.6700     1.8580    -0.3440 ca         1 7MV      -0.187600
     20 C11         -1.1740     0.8240     0.5070 ca         1 7MV      -0.074000
     21 C12         -0.8170     2.9430    -0.6750 ca         1 7MV       0.004000
     22 C13          0.4800     2.9500    -0.1490 ca         1 7MV      -0.112800
     23 C14          0.9500     1.9610     0.6660 ca         1 7MV      -0.028200
     24 Cl           4.7170    -3.9160    -0.7880 cl         1 7MV      -0.163000
     25 F            4.3970    -1.2390    -2.1400 f          1 7MV      -0.157000
     26 O           -3.5000     2.7210    -1.6340 o          1 7MV      -0.602100
     27 N1          -3.8600     0.7630    -0.5570 ns         1 7MV      -0.507900
     28 N2           2.2640     2.2530     1.0150 na         1 7MV      -0.092700
     29 H1          -5.2590     0.5400    -2.1000 h1         1 7MV       0.065200
     30 H2          -5.8430     1.4260    -0.6740 h1         1 7MV       0.065200
     31 H3          -6.0990    -4.0520    -1.1750 ha         1 7MV       0.111500
     32 H4          -7.2850    -4.0330     1.0190 ha         1 7MV       0.112000
     33 H5          -5.1600    -1.9450    -2.1040 ha         1 7MV       0.112500
     34 H6          -6.5920     0.2120     1.3610 ha         1 7MV       0.112500
     35 H7           2.4970     1.1270     2.7660 h1         1 7MV       0.068200
     36 H8           3.9750     1.8880     2.1720 h1         1 7MV       0.068200
     37 H9           3.6710     3.8860     0.5400 h4         1 7MV       0.213000
     38 H10          3.6900     0.8920    -0.8200 ha         1 7MV       0.144000
     39 H11          3.3960    -1.1120     3.0100 ha         1 7MV       0.122000
     40 H12          1.5310     4.7960    -0.8930 ha         1 7MV       0.212000
     41 H13          0.5140     0.0770     1.6610 ha         1 7MV       0.118000
     42 H14         -7.5280    -1.8990     2.2840 ha         1 7MV       0.111500
     43 H15          4.0620    -3.2490     1.9320 ha         1 7MV       0.135000
     44 H16         -1.7950    -0.0240     0.7830 ha         1 7MV       0.109000
     45 H17         -1.1500     3.7520    -1.3210 ha         1 7MV       0.138000
     46 H18         -3.4500     0.0650     0.0470 hn         1 7MV       0.315500
@<TRIPOS>BOND
     1     1     4 1   
     2     1    27 1   
     3     1    29 1   
     4     1    30 1   
     5     2     3 ar  
     6     2     5 ar  
     7     2    31 1   
     8     3    16 ar  
     9     3    32 1   
    10     4     5 ar  
    11     4     6 ar  
    12     5    33 1   
    13     6    16 ar  
    14     6    34 1   
    15     7     9 1   
    16     7    28 1   
    17     7    35 1   
    18     7    36 1   
    19     8    14 2   
    20     8    28 1   
    21     8    37 1   
    22     9    11 ar  
    23     9    13 ar  
    24    10    11 ar  
    25    10    12 ar  
    26    10    25 1   
    27    11    38 1   
    28    12    17 ar  
    29    12    24 1   
    30    13    17 ar  
    31    13    39 1   
    32    14    22 1   
    33    14    40 1   
    34    15    20 ar  
    35    15    23 ar  
    36    15    41 1   
    37    16    42 1   
    38    17    43 1   
    39    18    19 1   
    40    18    26 2   
    41    18    27 1   
    42    19    20 ar  
    43    19    21 ar  
    44    20    44 1   
    45    21    22 ar  
    46    21    45 1   
    47    22    23 ar  
    48    23    28 1   
    49    27    46 1   
@<TRIPOS>SUBSTRUCTURE
     1 7MV         1 TEMP              0 ****  ****    0 ROOT
