@<TRIPOS>MOLECULE
7MV
   46    49     1     0     0
SMALL
abcg2


@<TRIPOS>ATOM
      1 C4          -4.7340    -0.2810    -1.7030 c3         1 7MV       0.144300
      2 C5          -7.6170    -2.2930    -0.2880 ca         1 7MV      -0.108500
      3 C6          -7.3850    -2.2310     1.0810 ca         1 7MV      -0.111000
      4 C1          -5.6330    -0.9740    -0.7040 ca         1 7MV      -0.102300
      5 C3          -6.7450    -1.6720    -1.1710 ca         1 7MV      -0.103500
      6 C2          -5.4080    -0.9180     0.6670 ca         1 7MV      -0.103500
      7 C19          2.9880     1.3880     1.9940 c3         1 7MV       0.124900
      8 C18          2.2780     3.4580     0.7670 cc         1 7MV      -0.165100
      9 C20          3.5380     0.2170     1.2170 ca         1 7MV      -0.086300
     10 C23          4.5290    -0.6810    -0.7650 ca         1 7MV       0.183000
     11 C21          4.0170     0.3970    -0.0770 ca         1 7MV      -0.125000
     12 C15          4.5800    -1.9450    -0.1960 ca         1 7MV       0.073000
     13 C22          3.5860    -1.0470     1.7900 ca         1 7MV      -0.111000
     14 C17          1.2020     3.8900     0.0530 cd         1 7MV      -0.220200
     15 C16          0.1690     0.5590     1.0070 ca         1 7MV      -0.131000
     16 C7          -6.2770    -1.5430     1.5540 ca         1 7MV      -0.108500
     17 C8           4.1060    -2.1260     1.0910 ca         1 7MV      -0.077000
     18 C9          -3.0550     1.3130    -0.8710 c          1 7MV       0.618700
     19 C10         -1.6860     1.4520    -0.2930 ca         1 7MV      -0.187600
     20 C11         -1.0850     0.4170     0.4510 ca         1 7MV      -0.074000
     21 C12         -1.0230     2.6560    -0.4750 ca         1 7MV       0.004000
     22 C13          0.2540     2.8210     0.0590 ca         1 7MV      -0.112800
     23 C14          0.8340     1.7660     0.7990 ca         1 7MV      -0.028200
     24 CL           5.2270    -3.2580    -1.1030 cl         1 7MV      -0.163000
     25 F            4.9890    -0.5140    -2.0070 f          1 7MV      -0.157000
     26 O           -3.7740     2.2880    -1.0460 o          1 7MV      -0.602100
     27 N1          -3.4330     0.0590    -1.1920 ns         1 7MV      -0.507900
     28 N2           2.0620     2.1820     1.2240 na         1 7MV      -0.092700
     29 H1          -4.6120    -0.9190    -2.5800 h1         1 7MV       0.065200
     30 H2          -5.2160     0.6330    -2.0520 h1         1 7MV       0.065200
     31 H3          -8.4760    -2.8300    -0.6700 ha         1 7MV       0.111500
     32 H4          -8.0620    -2.7190     1.7710 ha         1 7MV       0.112000
     33 H5          -6.9320    -1.7320    -2.2370 ha         1 7MV       0.112500
     34 H6          -4.5450    -0.3930     1.0560 ha         1 7MV       0.112500
     35 H7           2.5010     1.0350     2.9050 h1         1 7MV       0.068200
     36 H8           3.8020     2.0410     2.3110 h1         1 7MV       0.068200
     37 H9           3.2010     3.9660     1.0010 h4         1 7MV       0.213000
     38 H10          3.9960     1.3680    -0.5580 ha         1 7MV       0.144000
     39 H11          3.2090    -1.2020     2.7930 ha         1 7MV       0.122000
     40 H12          1.0970     4.8540    -0.4180 ha         1 7MV       0.212000
     41 H13          0.6030    -0.2450     1.5870 ha         1 7MV       0.118000
     42 H14         -6.0830    -1.4910     2.6180 ha         1 7MV       0.111500
     43 H15          4.1340    -3.1080     1.5420 ha         1 7MV       0.135000
     44 H16         -1.6170    -0.5080     0.6310 ha         1 7MV       0.109000
     45 H17         -1.4900     3.4570    -1.0350 ha         1 7MV       0.138000
     46 H18         -2.7590    -0.6850    -1.1280 hn         1 7MV       0.315500
@<TRIPOS>BOND
     1     1     4 1   
     2     1    27 1   
     3     1    29 1   
     4     1    30 1   
     5     2     3 ar  
     6     2     5 ar  
     7     2    31 1   
     8     3    16 ar  
     9     3    32 1   
    10     4     5 ar  
    11     4     6 ar  
    12     5    33 1   
    13     6    16 ar  
    14     6    34 1   
    15     7     9 1   
    16     7    28 1   
    17     7    35 1   
    18     7    36 1   
    19     8    14 2   
    20     8    28 1   
    21     8    37 1   
    22     9    11 ar  
    23     9    13 ar  
    24    10    11 ar  
    25    10    12 ar  
    26    10    25 1   
    27    11    38 1   
    28    12    17 ar  
    29    12    24 1   
    30    13    17 ar  
    31    13    39 1   
    32    14    22 1   
    33    14    40 1   
    34    15    20 ar  
    35    15    23 ar  
    36    15    41 1   
    37    16    42 1   
    38    17    43 1   
    39    18    19 1   
    40    18    26 2   
    41    18    27 1   
    42    19    20 ar  
    43    19    21 ar  
    44    20    44 1   
    45    21    22 ar  
    46    21    45 1   
    47    22    23 ar  
    48    23    28 1   
    49    27    46 1   
@<TRIPOS>SUBSTRUCTURE
     1 7MV         1 TEMP              0 ****  ****    0 ROOT
