@<TRIPOS>MOLECULE
7MW
   24    24     1     0     0
SMALL
No Charge or Current Charge


@<TRIPOS>ATOM
      1 C01          5.1030     0.0700    -0.0050 c3         1 7MW      -0.078100
      2 C02          3.6590     0.6240    -0.0060 c3         1 7MW      -0.173400
      3 C03          2.5300    -0.4240     0.0030 c          1 7MW       0.609700
      4 O04          2.7770    -1.6250     0.0110 o          1 7MW      -0.527100
      5 C05          1.1330     0.0780     0.0030 cc         1 7MW      -0.270600
      6 C06          0.7380     1.3950    -0.0050 cd         1 7MW      -0.123000
      7 N07         -0.6640     1.3830    -0.0020 na         1 7MW      -0.066000
      8 C08         -1.1280     0.0580     0.0080 cd         1 7MW      -0.261600
      9 C09         -0.0160    -0.7410     0.0110 cc         1 7MW      -0.031000
     10 C10         -2.5280    -0.4230     0.0140 c          1 7MW       0.635700
     11 O11         -2.8280    -1.6100     0.0220 o          1 7MW      -0.472000
     12 O12         -3.4480     0.5930     0.0090 os         1 7MW      -0.462100
     13 C13         -4.8450     0.2440     0.0150 c3         1 7MW       0.156900
     14 H1           5.2850    -0.5390     0.8890 hc         1 7MW       0.040700
     15 H2           5.2810    -0.5510    -0.8910 hc         1 7MW       0.040700
     16 H3           5.8280     0.8930    -0.0120 hc         1 7MW       0.040700
     17 H4           3.4890     1.3070     0.8350 hc         1 7MW       0.054700
     18 H5           3.4860     1.2950    -0.8560 hc         1 7MW       0.054700
     19 H6           1.3150     2.3140    -0.0130 h4         1 7MW       0.152000
     20 H7          -1.2570     2.2090    -0.0060 hn         1 7MW       0.363000
     21 H8          -0.0050    -1.8290     0.0180 ha         1 7MW       0.165000
     22 H9          -5.1040    -0.3500    -0.8720 h1         1 7MW       0.050367
     23 H10         -5.1000    -0.3380     0.9100 h1         1 7MW       0.050367
     24 H11         -5.4660     1.1490     0.0100 h1         1 7MW       0.050367
@<TRIPOS>BOND
     1     1     2 1   
     2     1    14 1   
     3     1    15 1   
     4     1    16 1   
     5     2     3 1   
     6     2    17 1   
     7     2    18 1   
     8     3     4 2   
     9     3     5 1   
    10     5     6 2   
    11     5     9 1   
    12     6     7 1   
    13     6    19 1   
    14     7     8 1   
    15     7    20 1   
    16     8     9 2   
    17     8    10 1   
    18     9    21 1   
    19    10    11 2   
    20    10    12 1   
    21    12    13 1   
    22    13    22 1   
    23    13    23 1   
    24    13    24 1   
@<TRIPOS>SUBSTRUCTURE
     1 7MW         1 TEMP              0 ****  ****    0 ROOT
