@<TRIPOS>MOLECULE
7MW
   24    24     1     0     0
SMALL
abcg2


@<TRIPOS>ATOM
      1 C01          5.0200     0.1300    -0.0050 c3         1 7MW      -0.078100
      2 C02          3.5960     0.6570    -0.0080 c3         1 7MW      -0.173400
      3 C03          2.5370    -0.4190     0.0020 c          1 7MW       0.609700
      4 O04          2.8210    -1.6020     0.0100 o          1 7MW      -0.527100
      5 C05          1.1380     0.0110     0.0040 cc         1 7MW      -0.270600
      6 C06          0.6530     1.3130    -0.0050 cd         1 7MW      -0.123000
      7 N07         -0.6830     1.2640    -0.0010 na         1 7MW      -0.066000
      8 C08         -1.1050    -0.0430     0.0100 cd         1 7MW      -0.261600
      9 C09          0.0110    -0.8420     0.0130 cc         1 7MW      -0.031000
     10 C10         -2.5030    -0.4520     0.0160 c          1 7MW       0.635700
     11 O11         -2.8630    -1.6060     0.0230 o          1 7MW      -0.472000
     12 O12         -3.3250     0.5880     0.0110 os         1 7MW      -0.462100
     13 C13         -4.7290     0.3240     0.0130 c3         1 7MW       0.156900
     14 H1           5.2270    -0.4690     0.8820 hc         1 7MW       0.040700
     15 H2           5.2240    -0.4860    -0.8800 hc         1 7MW       0.040700
     16 H3           5.7240     0.9620    -0.0140 hc         1 7MW       0.040700
     17 H4           3.4290     1.3080     0.8560 hc         1 7MW       0.054700
     18 H5           3.4270     1.2950    -0.8810 hc         1 7MW       0.054700
     19 H6           1.1730     2.2580    -0.0130 h4         1 7MW       0.152000
     20 H7          -1.2840     2.0730    -0.0060 hn         1 7MW       0.363000
     21 H8           0.0170    -1.9200     0.0210 ha         1 7MW       0.165000
     22 H9          -5.0290    -0.2280    -0.8770 h1         1 7MW       0.050367
     23 H10         -5.0270    -0.2310     0.9020 h1         1 7MW       0.050367
     24 H11         -5.2130     1.2960     0.0150 h1         1 7MW       0.050367
@<TRIPOS>BOND
     1     1     2 1   
     2     1    14 1   
     3     1    15 1   
     4     1    16 1   
     5     2     3 1   
     6     2    17 1   
     7     2    18 1   
     8     3     4 2   
     9     3     5 1   
    10     5     6 2   
    11     5     9 1   
    12     6     7 1   
    13     6    19 1   
    14     7     8 1   
    15     7    20 1   
    16     8     9 2   
    17     8    10 1   
    18     9    21 1   
    19    10    11 2   
    20    10    12 1   
    21    12    13 1   
    22    13    22 1   
    23    13    23 1   
    24    13    24 1   
@<TRIPOS>SUBSTRUCTURE
     1 7MW         1 TEMP              0 ****  ****    0 ROOT
