@<TRIPOS>MOLECULE
7MX
   24    24     1     0     0
SMALL
No Charge or Current Charge


@<TRIPOS>ATOM
      1 C01         -4.6520     0.1790     0.0510 c3         1 7MX      -0.098100
      2 C02         -3.6140    -0.9530     0.0650 c3         1 7MX       0.169600
      3 O03         -2.3130    -0.3420     0.0360 os         1 7MX      -0.427100
      4 C04         -1.2080    -1.1480     0.0420 c          1 7MX       0.634300
      5 O05         -1.3030    -2.3690     0.0700 o          1 7MX      -0.518000
      6 C06          0.1160    -0.4600     0.0110 cc         1 7MX      -0.266200
      7 C07          1.2380    -1.2770     0.0170 cd         1 7MX       0.038600
      8 N08          2.5380    -0.7750    -0.0090 n          1 7MX      -0.264000
      9 C09          3.6970    -1.6980    -0.0020 c3         1 7MX       0.074300
     10 C10          2.7940     0.6070    -0.0430 c          1 7MX       0.559200
     11 O11          3.9230     1.0760    -0.0670 o          1 7MX      -0.531000
     12 C12          1.6040     1.4560    -0.0490 cd         1 7MX      -0.347200
     13 C13          0.3190     0.9760    -0.0230 cc         1 7MX       0.240000
     14 Cl          -0.9710     2.1490    -0.0350 cl         1 7MX      -0.149000
     15 H1          -5.6670    -0.2350     0.0720 hc         1 7MX       0.048367
     16 H2          -4.5270     0.8280     0.9260 hc         1 7MX       0.048367
     17 H3          -4.5470     0.7880    -0.8550 hc         1 7MX       0.048367
     18 H4          -3.7430    -1.5590     0.9720 h1         1 7MX       0.050200
     19 H5          -3.7640    -1.5990    -0.8110 h1         1 7MX       0.050200
     20 H6           1.1960    -2.3640     0.0420 h4         1 7MX       0.227000
     21 H7           4.2990    -1.5430    -0.9060 h1         1 7MX       0.060700
     22 H8           4.3200    -1.5020     0.8800 h1         1 7MX       0.060700
     23 H9           3.3670    -2.7440     0.0260 h1         1 7MX       0.060700
     24 H10          1.8080     2.5180    -0.0750 ha         1 7MX       0.230000
@<TRIPOS>BOND
     1     1     2 1   
     2     1    15 1   
     3     1    16 1   
     4     1    17 1   
     5     2     3 1   
     6     2    18 1   
     7     2    19 1   
     8     3     4 1   
     9     4     5 2   
    10     4     6 1   
    11     6     7 2   
    12     6    13 1   
    13     7     8 1   
    14     7    20 1   
    15     8     9 1   
    16     8    10 1   
    17     9    21 1   
    18     9    22 1   
    19     9    23 1   
    20    10    11 2   
    21    10    12 1   
    22    12    13 2   
    23    12    24 1   
    24    13    14 1   
@<TRIPOS>SUBSTRUCTURE
     1 7MX         1 TEMP              0 ****  ****    0 ROOT
