@<TRIPOS>MOLECULE
7MX
   24    24     1     0     0
SMALL
bcc


@<TRIPOS>ATOM
      1 C01         -4.5810     0.1410     0.0360 c3         1 7MX      -0.098100
      2 C02         -3.5450    -0.9580     0.0380 c3         1 7MX       0.146400
      3 O03         -2.2420    -0.3480     0.0580 os         1 7MX      -0.403900
      4 C04         -1.1920    -1.1350     0.0960 c          1 7MX       0.683300
      5 O05         -1.2600    -2.3410     0.1590 o          1 7MX      -0.567000
      6 C06          0.1000    -0.4160     0.0470 cc         1 7MX      -0.266200
      7 C07          1.2150    -1.2120     0.0420 cd         1 7MX       0.088600
      8 N08          2.4730    -0.7590    -0.0230 n          1 7MX      -0.331000
      9 C09          3.5900    -1.6970    -0.0100 c3         1 7MX       0.074300
     10 C10          2.7660     0.6100    -0.0950 c          1 7MX       0.701700
     11 O11          3.9300     0.9900    -0.1540 o          1 7MX      -0.606500
     12 C12          1.5990     1.4560    -0.0650 cd         1 7MX      -0.297200
     13 C13          0.3360     0.9840    -0.0190 cc         1 7MX       0.164400
     14 CL          -0.9360     2.1500     0.0470 cl         1 7MX      -0.073400
     15 H1          -5.5860    -0.3080     0.0290 hc         1 7MX       0.048367
     16 H2          -4.5060     0.7700     0.9240 hc         1 7MX       0.048367
     17 H3          -4.4890     0.7920    -0.8350 hc         1 7MX       0.048367
     18 H4          -3.6570    -1.5850     0.9240 h1         1 7MX       0.050200
     19 H5          -3.6320    -1.6000    -0.8530 h1         1 7MX       0.050200
     20 H6           1.1010    -2.2860     0.0970 h4         1 7MX       0.177000
     21 H7           4.2340    -1.5320    -0.8570 h1         1 7MX       0.060700
     22 H8           4.1760    -1.5800     0.9110 h1         1 7MX       0.060700
     23 H9           3.2140    -2.6870    -0.0640 h1         1 7MX       0.060700
     24 H10          1.8010     2.5620    -0.0970 ha         1 7MX       0.180000
@<TRIPOS>BOND
     1     1     2 1   
     2     1    15 1   
     3     1    16 1   
     4     1    17 1   
     5     2     3 1   
     6     2    18 1   
     7     2    19 1   
     8     3     4 1   
     9     4     5 2   
    10     4     6 1   
    11     6     7 2   
    12     6    13 1   
    13     7     8 1   
    14     7    20 1   
    15     8     9 1   
    16     8    10 1   
    17     9    21 1   
    18     9    22 1   
    19     9    23 1   
    20    10    11 2   
    21    10    12 1   
    22    12    13 2   
    23    12    24 1   
    24    13    14 1   
@<TRIPOS>SUBSTRUCTURE
     1 7MX         1 TEMP              0 ****  ****    0 ROOT
