@<TRIPOS>MOLECULE
7MY
   66    71     1     0     0
SMALL
bcc


@<TRIPOS>ATOM
      1 C4           2.6820    -0.9870    -0.2290 ca         1 7MY       0.607200
      2 C5           2.9390    -2.1930     0.4240 ca         1 7MY      -0.426900
      3 C6           1.8300    -2.9170     0.7600 ca         1 7MY       0.522200
      4 N1           0.5960    -2.4870     0.4780 nb         1 7MY      -0.783000
      5 N3           1.5010    -0.5290    -0.5320 nb         1 7MY      -0.789000
      6 CAQ         -6.2440     0.9450     1.0690 c5         1 7MY       0.159300
      7 CAM         -7.6030     1.2110     1.7180 c5         1 7MY      -0.079400
      8 CAN         -8.6000     1.1840     0.5400 c5         1 7MY      -0.079400
      9 CAR         -7.7290     0.9100    -0.6860 c5         1 7MY       0.159300
     10 NBG         -6.5790     0.2140    -0.1390 n3         1 7MY      -0.720600
     11 CAX         -4.3980    -0.8270    -0.5310 ca         1 7MY      -0.055300
     12 CAL         -3.0700    -0.4730    -0.6890 ca         1 7MY      -0.186000
     13 CAG         -4.7060    -2.0300     0.1020 ca         1 7MY      -0.133000
     14 CAE         -3.6820    -2.8450     0.5480 ca         1 7MY      -0.109000
     15 CAI         -2.3460    -2.5010     0.3840 ca         1 7MY      -0.150000
     16 CAZ         -2.0290    -1.2960    -0.2420 ca         1 7MY       0.173600
     17 C2           0.4840    -1.3270    -0.1470 ca         1 7MY       0.938900
     18 CBI          4.4170    -2.3660     0.5850 c5         1 7MY      -0.048700
     19 CAA          4.9600    -3.5720    -0.1850 c3         1 7MY      -0.073100
     20 CAB          4.8520    -2.4150     2.0510 c3         1 7MY      -0.073100
     21 CAW          4.9370    -1.0770    -0.0610 c          1 7MY       0.712500
     22 OAC          6.0970    -0.7460    -0.1560 o          1 7MY      -0.584500
     23 NBH          3.8680    -0.3400    -0.5160 n          1 7MY      -0.455300
     24 CBF          3.9830     0.9580    -1.1570 c5         1 7MY       0.168000
     25 CAP          3.3350     1.0530    -2.5570 c5         1 7MY      -0.077400
     26 CAO          2.1060     1.9710    -2.4340 c5         1 7MY      -0.024100
     27 CBC          2.2710     2.6110    -1.0870 ca         1 7MY      -0.153300
     28 CBB          3.3000     2.0390    -0.3600 ca         1 7MY      -0.068300
     29 CAJ          3.5950     2.4420     0.9320 ca         1 7MY      -0.135000
     30 CAF          2.8230     3.4510     1.4940 ca         1 7MY      -0.100000
     31 CAH          1.7850     4.0390     0.7800 ca         1 7MY      -0.154000
     32 CAY          1.5010     3.6190    -0.5170 ca         1 7MY       0.143100
     33 OAD          0.4740     4.2110    -1.1650 oh         1 7MY      -0.498100
     34 H1           1.8940    -3.8730     1.2700 h4         1 7MY       0.027100
     35 H3          -5.5690     0.3710     1.7070 h1         1 7MY       0.036700
     36 H4          -7.8410     0.4360     2.4460 hc         1 7MY       0.046200
     37 H5          -7.6080     2.1620     2.2490 hc         1 7MY       0.046200
     38 H6          -9.3350     0.3910     0.6750 hc         1 7MY       0.046200
     39 H7          -9.1510     2.1180     0.4360 hc         1 7MY       0.046200
     40 H8          -8.2290     0.3040    -1.4450 h1         1 7MY       0.036700
     41 H9          -7.4380     1.8600    -1.1660 h1         1 7MY       0.036700
     42 H13         -2.8300     0.4710    -1.1680 ha         1 7MY       0.124000
     43 H14         -5.7400    -2.3110     0.2490 ha         1 7MY       0.149000
     44 H15         -3.9190    -3.7800     1.0390 ha         1 7MY       0.131000
     45 H16         -1.5670    -3.1550     0.7380 ha         1 7MY       0.167000
     46 H18          4.6880    -3.5350    -1.2400 hc         1 7MY       0.047200
     47 H19          6.0460    -3.6230    -0.1110 hc         1 7MY       0.047200
     48 H20          4.5530    -4.4940     0.2300 hc         1 7MY       0.047200
     49 H21          4.4680    -3.3180     2.5240 hc         1 7MY       0.047200
     50 H22          5.9390    -2.4320     2.1340 hc         1 7MY       0.047200
     51 H23          4.4770    -1.5600     2.6140 hc         1 7MY       0.047200
     52 H24          5.0550     1.1440    -1.2260 h1         1 7MY       0.091700
     53 H25          4.0580     1.4980    -3.2400 hc         1 7MY       0.055700
     54 H26          3.0820     0.0750    -2.9610 hc         1 7MY       0.055700
     55 H27          2.0820     2.6920    -3.2540 hc         1 7MY       0.050700
     56 H28          1.1790     1.3950    -2.4790 hc         1 7MY       0.050700
     57 H29          4.3980     1.9860     1.4970 ha         1 7MY       0.139000
     58 H30          3.0230     3.7890     2.5030 ha         1 7MY       0.134000
     59 H31          1.1880     4.8220     1.2300 ha         1 7MY       0.146000
     60 H32          0.3880     3.8530    -2.0530 ho         1 7MY       0.424000
     61 NAV         -0.7390    -0.8250    -0.4640 nu         1 7MY      -0.730300
     62 CAS         -5.4910     0.0600    -1.0670 c3         1 7MY       0.218100
     63 H2          -5.7420     1.8990     0.8330 h1         1 7MY       0.036700
     64 H11         -5.8860    -0.3890    -1.9840 h1         1 7MY       0.036200
     65 H12         -5.0620     1.0340    -1.3660 h1         1 7MY       0.036200
     66 H17         -0.6810     0.0640    -0.9320 hn         1 7MY       0.451800
@<TRIPOS>BOND
     1     1     2 ar  
     2     1     5 ar  
     3     1    23 1   
     4     2     3 ar  
     5     2    18 1   
     6     3     4 ar  
     7     3    34 1   
     8     4    17 ar  
     9     5    17 ar  
    10     6     7 1   
    11     6    10 1   
    12     6    35 1   
    13     6    63 1   
    14     7     8 1   
    15     7    36 1   
    16     7    37 1   
    17     8     9 1   
    18     8    38 1   
    19     8    39 1   
    20     9    10 1   
    21     9    40 1   
    22     9    41 1   
    23    10    62 1   
    24    11    12 ar  
    25    11    13 ar  
    26    11    62 1   
    27    12    16 ar  
    28    12    42 1   
    29    13    14 ar  
    30    13    43 1   
    31    14    15 ar  
    32    14    44 1   
    33    15    16 ar  
    34    15    45 1   
    35    16    61 1   
    36    17    61 1   
    37    18    19 1   
    38    18    20 1   
    39    18    21 1   
    40    19    46 1   
    41    19    47 1   
    42    19    48 1   
    43    20    49 1   
    44    20    50 1   
    45    20    51 1   
    46    21    22 2   
    47    21    23 1   
    48    23    24 1   
    49    24    25 1   
    50    24    28 1   
    51    24    52 1   
    52    25    26 1   
    53    25    53 1   
    54    25    54 1   
    55    26    27 1   
    56    26    55 1   
    57    26    56 1   
    58    27    28 ar  
    59    27    32 ar  
    60    28    29 ar  
    61    29    30 ar  
    62    29    57 1   
    63    30    31 ar  
    64    30    58 1   
    65    31    32 ar  
    66    31    59 1   
    67    32    33 1   
    68    33    60 1   
    69    61    66 1   
    70    62    64 1   
    71    62    65 1   
@<TRIPOS>SUBSTRUCTURE
     1 7MY         1 TEMP              0 ****  ****    0 ROOT
