@<TRIPOS>MOLECULE
7MY
   66    71     1     0     0
SMALL
No Charge or Current Charge


@<TRIPOS>ATOM
      1 C4           2.6580    -0.9430    -0.1700 ca         1 7MY       0.278900
      2 C5           2.9750    -2.2260     0.2010 ca         1 7MY      -0.296300
      3 C6           1.9280    -3.1060     0.5040 ca         1 7MY       0.193900
      4 N1           0.6480    -2.6780     0.4280 nb         1 7MY      -0.257000
      5 N3           1.3990    -0.4890    -0.2640 nb         1 7MY      -0.263000
      6 CAQ         -5.8620     1.3390     0.3380 c5         1 7MY       0.159300
      7 CAM         -7.0230     2.1100     1.0210 c5         1 7MY      -0.079400
      8 CAN         -8.2970     1.6270     0.2570 c5         1 7MY      -0.079400
      9 CAR         -7.7410     0.6530    -0.8150 c5         1 7MY       0.159300
     10 NBG         -6.5480     0.1170    -0.1310 n3         1 7MY      -0.720600
     11 CAX         -4.5270    -1.3680    -0.1720 ca         1 7MY      -0.055300
     12 CAL         -3.2220    -0.9120    -0.4500 ca         1 7MY      -0.168000
     13 CAG         -4.7190    -2.3420     0.8250 ca         1 7MY      -0.115000
     14 CAE         -3.6220    -2.8490     1.5380 ca         1 7MY      -0.091000
     15 CAI         -2.3240    -2.3890     1.2530 ca         1 7MY      -0.132000
     16 CAZ         -2.1150    -1.4250     0.2480 ca         1 7MY       0.312000
     17 C2           0.4520    -1.3900     0.0580 ca         1 7MY       0.412900
     18 CBI          4.4770    -2.4340     0.1890 c5         1 7MY      -0.048700
     19 CAA          4.9040    -3.5340    -0.8140 c3         1 7MY      -0.073100
     20 CAB          5.0240    -2.7720     1.5980 c3         1 7MY      -0.073100
     21 CAW          4.9990    -1.0210    -0.2810 c          1 7MY       0.570000
     22 OAC          6.1490    -0.6490    -0.4740 o          1 7MY      -0.509000
     23 NBH          3.8470    -0.2280    -0.4490 n          1 7MY      -0.388300
     24 CBF          3.9620     1.1930    -0.8830 c5         1 7MY       0.168000
     25 CAP          3.3650     1.3020    -2.3410 c5         1 7MY      -0.077400
     26 CAO          2.6000     2.6810    -2.3820 c5         1 7MY      -0.024100
     27 CBC          2.2600     2.8800    -0.9200 ca         1 7MY      -0.153300
     28 CBB          3.0140     2.0640    -0.0970 ca         1 7MY      -0.068300
     29 CAJ          2.8740     2.1150     1.3010 ca         1 7MY      -0.117000
     30 CAF          1.9340     3.0010     1.8610 ca         1 7MY      -0.082000
     31 CAH          1.1600     3.8300     1.0230 ca         1 7MY      -0.136000
     32 CAY          1.3240     3.7760    -0.3730 ca         1 7MY       0.143100
     33 OAD          0.5830     4.5930    -1.1750 oh         1 7MY      -0.537100
     34 H1           2.1010    -4.1390     0.8010 h4         1 7MY       0.027100
     35 H3          -5.0430     1.1230     1.0380 h1         1 7MY       0.036700
     36 H4          -7.0890     1.8570     2.0850 hc         1 7MY       0.046200
     37 H5          -6.8800     3.1940     0.9550 hc         1 7MY       0.046200
     38 H6          -8.9840     1.1100     0.9360 hc         1 7MY       0.046200
     39 H7          -8.8540     2.4550    -0.1970 hc         1 7MY       0.046200
     40 H8          -8.4660    -0.1300    -1.0780 h1         1 7MY       0.036700
     41 H9          -7.4670     1.1900    -1.7350 h1         1 7MY       0.036700
     42 H13         -3.0720    -0.1570    -1.2170 ha         1 7MY       0.106000
     43 H14         -5.7230    -2.6950     1.0520 ha         1 7MY       0.131000
     44 H15         -3.7760    -3.5930     2.3180 ha         1 7MY       0.113000
     45 H16         -1.4920    -2.7720     1.8320 ha         1 7MY       0.149000
     46 H18          4.5380    -3.3080    -1.8230 hc         1 7MY       0.047200
     47 H19          5.9960    -3.6220    -0.8700 hc         1 7MY       0.047200
     48 H20          4.5030    -4.5130    -0.5260 hc         1 7MY       0.047200
     49 H21          4.6250    -3.7280     1.9610 hc         1 7MY       0.047200
     50 H22          6.1180    -2.8450     1.5950 hc         1 7MY       0.047200
     51 H23          4.7440    -1.9990     2.3240 hc         1 7MY       0.047200
     52 H24          4.9870     1.5870    -0.8240 h1         1 7MY       0.091700
     53 H25          4.1440     1.2370    -3.1080 hc         1 7MY       0.055700
     54 H26          2.6600     0.4900    -2.5530 hc         1 7MY       0.055700
     55 H27          3.2460     3.4850    -2.7540 hc         1 7MY       0.050700
     56 H28          1.7190     2.6330    -3.0310 hc         1 7MY       0.050700
     57 H29          3.4760     1.4730     1.9400 ha         1 7MY       0.121000
     58 H30          1.8080     3.0480     2.9410 ha         1 7MY       0.116000
     59 H31          0.4380     4.5170     1.4570 ha         1 7MY       0.128000
     60 H32          0.8530     4.4330    -2.1040 ho         1 7MY       0.463000
     61 NAV         -0.8490    -0.9210    -0.0640 nu         1 7MY      -0.923900
     62 CAS         -5.7240    -0.8090    -0.9380 c3         1 7MY       0.218100
     63 H2          -5.4480     1.9110    -0.5050 h1         1 7MY       0.036700
     64 H11         -6.3410    -1.6540    -1.2730 h1         1 7MY       0.036200
     65 H12         -5.3650    -0.3000    -1.8440 h1         1 7MY       0.036200
     66 H17         -0.8790    -0.0270    -0.5500 hn         1 7MY       0.507000
@<TRIPOS>BOND
     1     1     2 ar  
     2     1     5 ar  
     3     1    23 1   
     4     2     3 ar  
     5     2    18 1   
     6     3     4 ar  
     7     3    34 1   
     8     4    17 ar  
     9     5    17 ar  
    10     6     7 1   
    11     6    10 1   
    12     6    35 1   
    13     6    63 1   
    14     7     8 1   
    15     7    36 1   
    16     7    37 1   
    17     8     9 1   
    18     8    38 1   
    19     8    39 1   
    20     9    10 1   
    21     9    40 1   
    22     9    41 1   
    23    10    62 1   
    24    11    12 ar  
    25    11    13 ar  
    26    11    62 1   
    27    12    16 ar  
    28    12    42 1   
    29    13    14 ar  
    30    13    43 1   
    31    14    15 ar  
    32    14    44 1   
    33    15    16 ar  
    34    15    45 1   
    35    16    61 1   
    36    17    61 1   
    37    18    19 1   
    38    18    20 1   
    39    18    21 1   
    40    19    46 1   
    41    19    47 1   
    42    19    48 1   
    43    20    49 1   
    44    20    50 1   
    45    20    51 1   
    46    21    22 2   
    47    21    23 1   
    48    23    24 1   
    49    24    25 1   
    50    24    28 1   
    51    24    52 1   
    52    25    26 1   
    53    25    53 1   
    54    25    54 1   
    55    26    27 1   
    56    26    55 1   
    57    26    56 1   
    58    27    28 ar  
    59    27    32 ar  
    60    28    29 ar  
    61    29    30 ar  
    62    29    57 1   
    63    30    31 ar  
    64    30    58 1   
    65    31    32 ar  
    66    31    59 1   
    67    32    33 1   
    68    33    60 1   
    69    61    66 1   
    70    62    64 1   
    71    62    65 1   
@<TRIPOS>SUBSTRUCTURE
     1 7MY         1 TEMP              0 ****  ****    0 ROOT
