@<TRIPOS>MOLECULE
7MZ
   26    27     1     0     0
SMALL
No Charge or Current Charge


@<TRIPOS>ATOM
      1 C14          4.5320    -0.4120    -0.9540 ca         1 7MZ      -0.257000
      2 C13          3.3200    -0.6730    -1.6100 ca         1 7MZ       0.142400
      3 C11          2.1690    -0.2190     0.3400 ca         1 7MZ       0.348300
      4 C15          4.4690    -0.0510     0.4000 ca         1 7MZ       0.142400
      5 C01         -5.1950    -0.6590    -0.1290 c3         1 7MZ      -0.195100
      6 O03         -3.7700    -1.9560     1.2750 o          1 7MZ      -0.519100
      7 C04         -2.6170    -0.1910     0.1510 ca         1 7MZ      -0.169600
      8 C05         -1.3690    -0.5200     0.7340 ca         1 7MZ      -0.050000
      9 C06         -0.2140     0.2170     0.4250 ca         1 7MZ       0.101100
     10 C07         -0.2910     1.3120    -0.4540 ca         1 7MZ      -0.080000
     11 C08         -1.5220     1.6510    -1.0390 ca         1 7MZ      -0.116000
     12 C09         -2.6770     0.9050    -0.7430 ca         1 7MZ      -0.072000
     13 O10          0.9780    -0.1260     1.0270 os         1 7MZ      -0.342400
     14 N12          2.1410    -0.5790    -0.9670 nb         1 7MZ      -0.206500
     15 N16          3.2910     0.0430     1.0470 nb         1 7MZ      -0.206500
     16 H1           5.4830    -0.4870    -1.4740 ha         1 7MZ       0.140000
     17 H2           3.2910    -0.9600    -2.6600 h4         1 7MZ       0.028600
     18 H3           5.3680     0.1640     0.9750 h4         1 7MZ       0.028600
     19 H4          -6.0000    -1.3260     0.2010 hc         1 7MZ       0.062367
     20 H5          -5.4290     0.3890     0.0900 hc         1 7MZ       0.062367
     21 H6          -5.0950    -0.6630    -1.2200 hc         1 7MZ       0.062367
     22 H7          -1.2860    -1.3540     1.4270 ha         1 7MZ       0.149000
     23 H8           0.5950     1.9010    -0.6790 ha         1 7MZ       0.129000
     24 H9          -1.5820     2.4950    -1.7220 ha         1 7MZ       0.120000
     25 H10         -3.6120     1.1970    -1.2150 ha         1 7MZ       0.117000
     26 C02         -3.8450    -1.0120     0.4980 c          1 7MZ       0.583700
@<TRIPOS>BOND
     1     1     2 ar  
     2     1     4 ar  
     3     1    16 1   
     4     2    14 ar  
     5     2    17 1   
     6     3    13 1   
     7     3    14 ar  
     8     3    15 ar  
     9     4    15 ar  
    10     4    18 1   
    11     5    19 1   
    12     5    20 1   
    13     5    21 1   
    14     5    26 1   
    15     6    26 2   
    16     7     8 ar  
    17     7    12 ar  
    18     7    26 1   
    19     8     9 ar  
    20     8    22 1   
    21     9    10 ar  
    22     9    13 1   
    23    10    11 ar  
    24    10    23 1   
    25    11    12 ar  
    26    11    24 1   
    27    12    25 1   
@<TRIPOS>SUBSTRUCTURE
     1 7MZ         1 TEMP              0 ****  ****    0 ROOT
