@<TRIPOS>MOLECULE
7MZ
   26    27     1     0     0
SMALL
bcc


@<TRIPOS>ATOM
      1 C14          4.2220    -0.8530    -0.9000 ca         1 7MZ      -0.405600
      2 C13          2.9800    -0.8020    -1.5050 ca         1 7MZ       0.470700
      3 C11          2.0850     0.0620     0.3610 ca         1 7MZ       0.874300
      4 C15          4.2780    -0.3970     0.4080 ca         1 7MZ       0.470700
      5 C01         -4.8380    -0.9300    -0.2330 c3         1 7MZ      -0.195100
      6 O03         -3.2210    -2.0900     1.0600 o          1 7MZ      -0.519100
      7 C04         -2.4260    -0.1030     0.0890 ca         1 7MZ      -0.169600
      8 C05         -1.1620    -0.2680     0.6570 ca         1 7MZ      -0.068000
      9 C06         -0.1800     0.6710     0.4200 ca         1 7MZ       0.101100
     10 C07         -0.4200     1.7780    -0.3820 ca         1 7MZ      -0.098000
     11 C08         -1.6730     1.9380    -0.9500 ca         1 7MZ      -0.134000
     12 C09         -2.6730     1.0040    -0.7200 ca         1 7MZ      -0.090000
     13 O10          1.0360     0.5350     1.0520 os         1 7MZ      -0.342400
     14 N12          1.9010    -0.3450    -0.8780 nb         1 7MZ      -0.732500
     15 N16          3.2130     0.0630     1.0480 nb         1 7MZ      -0.732500
     16 H1           5.0950    -1.2230    -1.4140 ha         1 7MZ       0.158000
     17 H2           2.8390    -1.1380    -2.5260 h4         1 7MZ       0.028600
     18 H3           5.2110    -0.4000     0.9610 h4         1 7MZ       0.028600
     19 H4          -5.5140    -1.7140     0.0990 hc         1 7MZ       0.062367
     20 H5          -5.2560     0.0390     0.0440 hc         1 7MZ       0.062367
     21 H6          -4.7820    -0.9540    -1.3230 hc         1 7MZ       0.062367
     22 H7          -0.9500    -1.1210     1.2900 ha         1 7MZ       0.167000
     23 H8           0.3600     2.5090    -0.5530 ha         1 7MZ       0.147000
     24 H9          -1.8720     2.7990    -1.5750 ha         1 7MZ       0.138000
     25 H10         -3.6430     1.1530    -1.1730 ha         1 7MZ       0.135000
     26 C02         -3.4750    -1.1270     0.3680 c          1 7MZ       0.583700
@<TRIPOS>BOND
     1     1     2 ar  
     2     1     4 ar  
     3     1    16 1   
     4     2    14 ar  
     5     2    17 1   
     6     3    13 1   
     7     3    14 ar  
     8     3    15 ar  
     9     4    15 ar  
    10     4    18 1   
    11     5    19 1   
    12     5    20 1   
    13     5    21 1   
    14     5    26 1   
    15     6    26 2   
    16     7     8 ar  
    17     7    12 ar  
    18     7    26 1   
    19     8     9 ar  
    20     8    22 1   
    21     9    10 ar  
    22     9    13 1   
    23    10    11 ar  
    24    10    23 1   
    25    11    12 ar  
    26    11    24 1   
    27    12    25 1   
@<TRIPOS>SUBSTRUCTURE
     1 7MZ         1 TEMP              0 ****  ****    0 ROOT
