@<TRIPOS>MOLECULE
7N0
   19    19     1     0     0
SMALL
abcg2


@<TRIPOS>ATOM
      1 O3          -0.1440    -1.6380     0.7910 o          1 7N0      -0.496100
      2 C4          -0.8940    -0.7720     0.4040 c          1 7N0       0.574100
      3 C5          -2.4010    -0.7830     0.5720 c5         1 7N0      -0.203400
      4 C6          -2.8860     0.4480    -0.1920 c5         1 7N0      -0.076400
      5 C7          -1.7000     1.4140    -0.1080 c5         1 7N0      -0.082400
      6 C3          -0.4790     0.5110    -0.2830 c5         1 7N0      -0.148700
      7 C2           0.8540     1.0550     0.1950 c3         1 7N0      -0.189400
      8 C1           2.0810     0.2400    -0.2540 c          1 7N0       0.727000
      9 O2           2.0330    -0.2740    -1.3890 o          1 7N0      -0.737000
     10 O1           3.0480     0.2050     0.5340 o          1 7N0      -0.737000
     11 H1          -2.8380    -1.7290     0.2480 hc         1 7N0       0.052700
     12 H2          -2.6100    -0.6850     1.6430 hc         1 7N0       0.052700
     13 H3          -3.0780     0.1900    -1.2360 hc         1 7N0       0.030200
     14 H4          -3.8060     0.8640     0.2170 hc         1 7N0       0.030200
     15 H5          -1.7440     2.2070    -0.8560 hc         1 7N0       0.034200
     16 H6          -1.6740     1.8930     0.8760 hc         1 7N0       0.034200
     17 H7          -0.3910     0.2590    -1.3490 hc         1 7N0       0.093700
     18 H8           0.9750     2.0690    -0.2070 hc         1 7N0       0.020200
     19 H9           0.8470     1.1670     1.2820 hc         1 7N0       0.020200
@<TRIPOS>BOND
     1     1     2 2   
     2     2     3 1   
     3     2     6 1   
     4     3     4 1   
     5     3    11 1   
     6     3    12 1   
     7     4     5 1   
     8     4    13 1   
     9     4    14 1   
    10     5     6 1   
    11     5    15 1   
    12     5    16 1   
    13     6     7 1   
    14     6    17 1   
    15     7     8 1   
    16     7    18 1   
    17     7    19 1   
    18     8     9 1   
    19     8    10 1   
@<TRIPOS>SUBSTRUCTURE
     1 7N0         1 TEMP              0 ****  ****    0 ROOT
