@<TRIPOS>MOLECULE
7N0
   19    19     1     0     0
SMALL
No Charge or Current Charge


@<TRIPOS>ATOM
      1 O3          -0.3730    -0.7430     1.9590 o          1 7N0      -0.496100
      2 C4          -0.8600    -0.6000     0.8440 c          1 7N0       0.574100
      3 C5          -2.2890    -0.9320     0.4190 c5         1 7N0      -0.203400
      4 C6          -2.9120     0.4620     0.0760 c5         1 7N0      -0.076400
      5 C7          -1.6800     1.4260    -0.0790 c5         1 7N0      -0.082400
      6 C3          -0.4690     0.4550    -0.2030 c5         1 7N0      -0.148700
      7 C2           0.9340     1.1140    -0.0230 c3         1 7N0      -0.189400
      8 C1           2.0470     0.1560    -0.4960 c          1 7N0       0.727000
      9 O2           2.3420     0.1590    -1.6810 o          1 7N0      -0.737000
     10 O1           2.5360    -0.6110     0.3190 o          1 7N0      -0.737000
     11 H1          -2.2540    -1.5140    -0.5100 hc         1 7N0       0.052700
     12 H2          -2.8310    -1.4750     1.2010 hc         1 7N0       0.052700
     13 H3          -3.5090     0.4140    -0.8420 hc         1 7N0       0.030200
     14 H4          -3.5800     0.8110     0.8720 hc         1 7N0       0.030200
     15 H5          -1.7760     2.0880    -0.9470 hc         1 7N0       0.034200
     16 H6          -1.5780     2.0680     0.8050 hc         1 7N0       0.034200
     17 H7          -0.5370     0.0050    -1.2010 hc         1 7N0       0.093700
     18 H8           0.9290     2.0040    -0.6650 hc         1 7N0       0.020200
     19 H9           1.0520     1.3540     1.0400 hc         1 7N0       0.020200
@<TRIPOS>BOND
     1     1     2 2   
     2     2     3 1   
     3     2     6 1   
     4     3     4 1   
     5     3    11 1   
     6     3    12 1   
     7     4     5 1   
     8     4    13 1   
     9     4    14 1   
    10     5     6 1   
    11     5    15 1   
    12     5    16 1   
    13     6     7 1   
    14     6    17 1   
    15     7     8 1   
    16     7    18 1   
    17     7    19 1   
    18     8     9 1   
    19     8    10 1   
@<TRIPOS>SUBSTRUCTURE
     1 7N0         1 TEMP              0 ****  ****    0 ROOT
