@<TRIPOS>MOLECULE
7N1
   47    50     1     0     0
SMALL
No Charge or Current Charge


@<TRIPOS>ATOM
      1 CAH         -1.4300    -1.3130     0.3970 ca         1 7N1       0.182100
      2 CAI         -2.1500    -0.0980     0.4630 ca         1 7N1      -0.067000
      3 CAJ         -2.9270     0.3150    -0.6440 ca         1 7N1       0.002000
      4 CAK         -2.9890    -0.4890    -1.7960 ca         1 7N1      -0.183000
      5 CAL         -2.2880    -1.7010    -1.8440 ca         1 7N1       0.215000
      6 CAM         -1.5150    -2.1190    -0.7550 ca         1 7N1      -0.235000
      7 CAY         -2.0950     0.7220     1.6120 ca         1 7N1      -0.072000
      8 CAZ         -2.8070     1.9320     1.6550 ca         1 7N1      -0.102000
      9 CBA         -3.5770     2.3430     0.5500 ca         1 7N1       0.008000
     10 CBB         -3.6340     1.5310    -0.5980 ca         1 7N1      -0.072000
     11 CBC         -4.2990     3.5850     0.5930 cg         1 7N1       0.316000
     12 NBD         -4.8790     4.5980     0.6230 n1         1 7N1      -0.438000
     13 C0P          0.5540     2.0100    -0.6110 cc         1 7N1       0.016600
     14 C00          2.6380    -3.0490     0.4020 ca         1 7N1      -0.239000
     15 C0D          2.4240    -0.7160    -1.2990 c3         1 7N1       0.136600
     16 C0E          1.9670     0.5460    -2.0600 c3         1 7N1       0.107000
     17 C0K          2.8850     2.6160    -1.0180 c          1 7N1       0.615000
     18 C0N          1.5080     4.0750     0.3820 c          1 7N1       0.590200
     19 C0O          0.4050     3.1400     0.1580 cd         1 7N1      -0.381200
     20 N0H          1.7900     1.7430    -1.1980 n          1 7N1      -0.310000
     21 N0M          2.6580     3.7100    -0.2410 ns         1 7N1      -0.467500
     22 O0A         -0.6640    -1.7110     1.4740 os         1 7N1      -0.226200
     23 O0S          1.4210     5.0850     1.0560 o          1 7N1      -0.523000
     24 C01          2.7100    -4.1770     1.2310 ca         1 7N1       0.220000
     25 C02          1.6740    -4.4740     2.1270 ca         1 7N1      -0.180000
     26 C03          0.5480    -3.6360     2.1950 ca         1 7N1      -0.045000
     27 C04          0.4560    -2.5090     1.3600 ca         1 7N1       0.028100
     28 C05          1.5100    -2.1990     0.4610 ca         1 7N1       0.165100
     29 F01         -2.3580    -2.4720    -2.9500 f          1 7N1      -0.172000
     30 H1          -3.5820    -0.1820    -2.6540 ha         1 7N1       0.141000
     31 H2          -0.9840    -3.0640    -0.8120 ha         1 7N1       0.145000
     32 H3          -1.5010     0.4280     2.4750 ha         1 7N1       0.140000
     33 H4          -2.7560     2.5530     2.5480 ha         1 7N1       0.134000
     34 H5          -4.2280     1.8450    -1.4540 ha         1 7N1       0.131000
     35 H6          -0.2080     1.2670    -0.8300 h4         1 7N1       0.213000
     36 H7           3.4660    -2.8530    -0.2700 ha         1 7N1       0.143000
     37 H8           2.5690    -1.5300    -2.0210 h1         1 7N1       0.060700
     38 H9           3.3820    -0.5130    -0.8030 h1         1 7N1       0.060700
     39 H10          2.6950     0.7640    -2.8520 h1         1 7N1       0.081700
     40 H11          1.0170     0.3240    -2.5650 h1         1 7N1       0.081700
     41 H12         -0.5300     3.4020     0.6370 ha         1 7N1       0.224000
     42 H13          3.4430     4.3280    -0.1140 hn         1 7N1       0.343500
     43 H14          1.7460    -5.3490     2.7670 ha         1 7N1       0.144000
     44 H15         -0.2570    -3.8610     2.8910 ha         1 7N1       0.140000
     45 F02          3.7920    -4.9830     1.1690 f          1 7N1      -0.168000
     46 O0B          1.4130    -1.0700    -0.3350 os         1 7N1      -0.341100
     47 O0Q          3.9840     2.4240    -1.5110 o          1 7N1      -0.563000
@<TRIPOS>BOND
     1     1     2 ar  
     2     1     6 ar  
     3     1    22 1   
     4     2     3 ar  
     5     2     7 ar  
     6     3     4 ar  
     7     3    10 ar  
     8     4     5 ar  
     9     4    30 1   
    10     5     6 ar  
    11     5    29 1   
    12     6    31 1   
    13     7     8 ar  
    14     7    32 1   
    15     8     9 ar  
    16     8    33 1   
    17     9    10 ar  
    18     9    11 1   
    19    10    34 1   
    20    11    12 3   
    21    13    19 2   
    22    13    20 1   
    23    13    35 1   
    24    14    24 ar  
    25    14    28 ar  
    26    14    36 1   
    27    15    16 1   
    28    15    37 1   
    29    15    38 1   
    30    15    46 1   
    31    16    20 1   
    32    16    39 1   
    33    16    40 1   
    34    17    20 1   
    35    17    21 1   
    36    17    47 2   
    37    18    19 1   
    38    18    21 1   
    39    18    23 2   
    40    19    41 1   
    41    21    42 1   
    42    22    27 1   
    43    24    25 ar  
    44    24    45 1   
    45    25    26 ar  
    46    25    43 1   
    47    26    27 ar  
    48    26    44 1   
    49    27    28 ar  
    50    28    46 1   
@<TRIPOS>SUBSTRUCTURE
     1 7N1         1 TEMP              0 ****  ****    0 ROOT
