@<TRIPOS>MOLECULE
7N1
   47    50     1     0     0
SMALL
abcg2


@<TRIPOS>ATOM
      1 CAH         -1.3830    -1.1840     0.3360 ca         1 7N1       0.182100
      2 CAI         -2.2230    -0.0360     0.3700 ca         1 7N1      -0.067000
      3 CAJ         -3.2430     0.0770    -0.6100 ca         1 7N1       0.002000
      4 CAK         -3.4140    -0.9260    -1.5910 ca         1 7N1      -0.183000
      5 CAL         -2.5770    -1.9960    -1.5620 ca         1 7N1       0.215000
      6 CAM         -1.5570    -2.1550    -0.6140 ca         1 7N1      -0.235000
      7 CAY         -2.0670     0.9820     1.3380 ca         1 7N1      -0.072000
      8 CAZ         -2.8890     2.0720     1.3430 ca         1 7N1      -0.102000
      9 CBA         -3.9070     2.1830     0.3670 ca         1 7N1       0.008000
     10 CBB         -4.0820     1.2100    -0.5870 ca         1 7N1      -0.072000
     11 CBC         -4.7640     3.3240     0.3770 cg         1 7N1       0.316000
     12 NBD         -5.4480     4.2510     0.3900 n1         1 7N1      -0.438000
     13 C0P          0.8670     2.1200    -0.5460 cc         1 7N1       0.016600
     14 C00          2.6230    -2.9160     0.2280 ca         1 7N1      -0.239000
     15 C0D          2.5020    -0.6120    -1.4280 c3         1 7N1       0.136600
     16 C0E          2.1300     0.6980    -2.0850 c3         1 7N1       0.107000
     17 C0K          3.2210     2.4460    -0.7780 c          1 7N1       0.615000
     18 C0N          1.8980     3.8340     0.7910 c          1 7N1       0.590200
     19 C0O          0.7360     3.0890     0.3750 cd         1 7N1      -0.381200
     20 N0H          2.0570     1.7960    -1.1290 n          1 7N1      -0.310000
     21 N0M          3.0650     3.4370     0.1550 ns         1 7N1      -0.467500
     22 O0A         -0.4410    -1.2420     1.3020 os         1 7N1      -0.226200
     23 O0S          1.9170     4.7320     1.6130 o          1 7N1      -0.523000
     24 C01          2.5850    -4.0050     1.0820 ca         1 7N1       0.220000
     25 C02          1.5730    -4.2140     1.9920 ca         1 7N1      -0.180000
     26 C03          0.5420    -3.2820     2.0420 ca         1 7N1      -0.045000
     27 C04          0.5530    -2.1840     1.2100 ca         1 7N1       0.028100
     28 C05          1.5930    -1.9860     0.2920 ca         1 7N1       0.165100
     29 F01         -2.7090    -2.9650    -2.4760 f          1 7N1      -0.172000
     30 H1          -4.1910    -0.8390    -2.3380 ha         1 7N1       0.141000
     31 H2          -0.9330    -3.0380    -0.6520 ha         1 7N1       0.145000
     32 H3          -1.2880     0.9060     2.0830 ha         1 7N1       0.140000
     33 H4          -2.7680     2.8480     2.0860 ha         1 7N1       0.134000
     34 H5          -4.8640     1.3050    -1.3290 ha         1 7N1       0.131000
     35 H6           0.0150     1.5510    -0.8890 h4         1 7N1       0.213000
     36 H7           3.4470    -2.8120    -0.4660 ha         1 7N1       0.143000
     37 H8           2.5480    -1.3940    -2.1920 h1         1 7N1       0.060700
     38 H9           3.4840    -0.5440    -0.9500 h1         1 7N1       0.060700
     39 H10          2.8610     0.9320    -2.8560 h1         1 7N1       0.081700
     40 H11          1.1600     0.6170    -2.5730 h1         1 7N1       0.081700
     41 H12         -0.2280     3.3190     0.8000 ha         1 7N1       0.224000
     42 H13          3.9130     3.9300     0.4080 hn         1 7N1       0.343500
     43 H14          1.5760    -5.0770     2.6430 ha         1 7N1       0.144000
     44 H15         -0.2740    -3.4110     2.7420 ha         1 7N1       0.140000
     45 F02          3.5870    -4.8930     1.0090 f          1 7N1      -0.168000
     46 O0B          1.4960    -0.8930    -0.4720 os         1 7N1      -0.341100
     47 O0Q          4.3000     2.1650    -1.2570 o          1 7N1      -0.563000
@<TRIPOS>BOND
     1     1     2 ar  
     2     1     6 ar  
     3     1    22 1   
     4     2     3 ar  
     5     2     7 ar  
     6     3     4 ar  
     7     3    10 ar  
     8     4     5 ar  
     9     4    30 1   
    10     5     6 ar  
    11     5    29 1   
    12     6    31 1   
    13     7     8 ar  
    14     7    32 1   
    15     8     9 ar  
    16     8    33 1   
    17     9    10 ar  
    18     9    11 1   
    19    10    34 1   
    20    11    12 3   
    21    13    19 2   
    22    13    20 1   
    23    13    35 1   
    24    14    24 ar  
    25    14    28 ar  
    26    14    36 1   
    27    15    16 1   
    28    15    37 1   
    29    15    38 1   
    30    15    46 1   
    31    16    20 1   
    32    16    39 1   
    33    16    40 1   
    34    17    20 1   
    35    17    21 1   
    36    17    47 2   
    37    18    19 1   
    38    18    21 1   
    39    18    23 2   
    40    19    41 1   
    41    21    42 1   
    42    22    27 1   
    43    24    25 ar  
    44    24    45 1   
    45    25    26 ar  
    46    25    43 1   
    47    26    27 ar  
    48    26    44 1   
    49    27    28 ar  
    50    28    46 1   
@<TRIPOS>SUBSTRUCTURE
     1 7N1         1 TEMP              0 ****  ****    0 ROOT
