@<TRIPOS>MOLECULE
7N2
   48    52     1     0     0
SMALL
abcg2


@<TRIPOS>ATOM
      1 N01         -3.4730    -0.6830    -0.1540 na         1 7N2       0.130200
      2 C02         -3.1960     0.4850    -0.8180 cc         1 7N2      -0.207300
      3 C03         -4.2860     0.8200    -1.5690 cd         1 7N2      -0.138000
      4 C04         -5.2620    -0.1940    -1.3590 cd         1 7N2      -0.176000
      5 C05         -4.7350    -1.1040    -0.4870 cc         1 7N2      -0.164000
      6 C06         -2.5260    -1.3160     0.6540 ca         1 7N2       0.004800
      7 C07         -2.8750    -2.2640     1.6070 ca         1 7N2      -0.111000
      8 C08         -1.8880    -2.8700     2.3660 ca         1 7N2      -0.091000
      9 C09         -0.5560    -2.5110     2.2060 ca         1 7N2      -0.097000
     10 C10         -0.2090    -1.5410     1.2790 ca         1 7N2      -0.092000
     11 C11         -1.1860    -0.9560     0.4870 ca         1 7N2       0.254000
     12 N12         -0.8750     0.0460    -0.4660 nh         1 7N2      -0.784300
     13 C13         -1.8350     1.9840     0.6760 ca         1 7N2      -0.146300
     14 C14         -2.8450     3.5850     2.1410 ca         1 7N2      -0.164000
     15 C15         -2.9250     2.7720     1.0240 ca         1 7N2      -0.058000
     16 C16         -0.7070     2.0630     1.4870 ca         1 7N2       0.351900
     17 N17         -0.6200     2.8420     2.5580 nb         1 7N2      -0.670000
     18 C18         -1.6700     3.5870     2.8770 ca         1 7N2       0.338900
     19 C19         -1.8690     1.1170    -0.5740 c6         1 7N2       0.364100
     20 S20          0.0890    -0.3600    -1.7690 sy         1 7N2       1.180600
     21 O21          0.0950    -1.8030    -1.9010 o          1 7N2      -0.523000
     22 O22         -0.3130     0.4830    -2.8800 o          1 7N2      -0.523000
     23 C23          1.7080     0.1520    -1.2630 ca         1 7N2      -0.286500
     24 C24          1.9620     1.5090    -1.0940 ca         1 7N2       0.013000
     25 C25          3.2230     1.9070    -0.6920 ca         1 7N2      -0.132000
     26 C26          4.2220     0.9640    -0.4780 ca         1 7N2      -0.007000
     27 C27          3.9570    -0.3820    -0.6700 ca         1 7N2      -0.219300
     28 C28          2.6880    -0.8010    -1.0610 ca         1 7N2       0.031000
     29 C29          5.0090    -1.4290    -0.4600 c3         1 7N2       0.360300
     30 F30          5.2700    -2.0910    -1.5940 f          1 7N2      -0.110000
     31 F31          6.1610    -0.9180    -0.0250 f          1 7N2      -0.110000
     32 F32          4.6160    -2.3420     0.4370 f          1 7N2      -0.110000
     33 H1          -4.3770     1.6960    -2.1930 ha         1 7N2       0.139000
     34 H2          -6.2410    -0.2500    -1.8080 ha         1 7N2       0.139000
     35 H3          -5.1430    -2.0250    -0.1060 h4         1 7N2       0.152000
     36 H4          -3.9140    -2.5270     1.7580 ha         1 7N2       0.126000
     37 H5          -2.1640    -3.6160     3.0990 ha         1 7N2       0.122000
     38 H6           0.2110    -2.9770     2.8090 ha         1 7N2       0.125000
     39 H7           0.8240    -1.2350     1.1770 ha         1 7N2       0.123000
     40 H8          -3.6800     4.2040     2.4400 ha         1 7N2       0.126000
     41 H9          -3.8330     2.7440     0.4350 ha         1 7N2       0.130000
     42 H10          0.1720     1.4670     1.2670 h4         1 7N2       0.021100
     43 H11         -1.5770     4.2070     3.7610 h4         1 7N2       0.020100
     44 H12         -1.6250     1.7520    -1.4270 h1         1 7N2       0.106700
     45 H13          1.1950     2.2520    -1.2660 ha         1 7N2       0.134000
     46 H14          3.4350     2.9570    -0.5460 ha         1 7N2       0.131000
     47 H15          5.2000     1.3000    -0.1650 ha         1 7N2       0.136000
     48 H16          2.4660    -1.8510    -1.1990 ha         1 7N2       0.157000
@<TRIPOS>BOND
     1     1     2 1   
     2     1     5 1   
     3     1     6 1   
     4     2     3 2   
     5     2    19 1   
     6     3     4 1   
     7     3    33 1   
     8     4     5 2   
     9     4    34 1   
    10     5    35 1   
    11     6     7 ar  
    12     6    11 ar  
    13     7     8 ar  
    14     7    36 1   
    15     8     9 ar  
    16     8    37 1   
    17     9    10 ar  
    18     9    38 1   
    19    10    11 ar  
    20    10    39 1   
    21    11    12 1   
    22    12    19 1   
    23    12    20 1   
    24    13    15 ar  
    25    13    16 ar  
    26    13    19 1   
    27    14    15 ar  
    28    14    18 ar  
    29    14    40 1   
    30    15    41 1   
    31    16    17 ar  
    32    16    42 1   
    33    17    18 ar  
    34    18    43 1   
    35    19    44 1   
    36    20    21 2   
    37    20    22 2   
    38    20    23 1   
    39    23    24 ar  
    40    23    28 ar  
    41    24    25 ar  
    42    24    45 1   
    43    25    26 ar  
    44    25    46 1   
    45    26    27 ar  
    46    26    47 1   
    47    27    28 ar  
    48    27    29 1   
    49    28    48 1   
    50    29    30 1   
    51    29    31 1   
    52    29    32 1   
@<TRIPOS>SUBSTRUCTURE
     1 7N2         1 TEMP              0 ****  ****    0 ROOT
