@<TRIPOS>MOLECULE
7N2
   48    52     1     0     0
SMALL
No Charge or Current Charge


@<TRIPOS>ATOM
      1 N01         -2.9760    -0.7690    -0.4600 na         1 7N2       0.130200
      2 C02         -3.0620     0.5420    -0.8800 cc         1 7N2      -0.207300
      3 C03         -4.2700     0.6420    -1.5180 cd         1 7N2      -0.138000
      4 C04         -4.9060    -0.6260    -1.4640 cd         1 7N2      -0.176000
      5 C05         -4.1030    -1.5180    -0.7940 cc         1 7N2      -0.164000
      6 C06         -1.8990    -1.1760     0.3350 ca         1 7N2       0.004800
      7 C07         -1.9350    -2.3720     1.0870 ca         1 7N2      -0.111000
      8 C08         -0.8790    -2.6960     1.9520 ca         1 7N2      -0.091000
      9 C09          0.2030    -1.8160     2.0980 ca         1 7N2      -0.097000
     10 C10          0.2420    -0.6240     1.3580 ca         1 7N2      -0.092000
     11 C11         -0.7760    -0.3060     0.4370 ca         1 7N2       0.254000
     12 N12         -0.7040     0.8970    -0.3230 nh         1 7N2      -0.784300
     13 C13         -2.3570     2.5330     0.4750 ca         1 7N2      -0.146300
     14 C14         -3.2110     3.0460     2.6750 ca         1 7N2      -0.164000
     15 C15         -2.9040     2.0880     1.6950 ca         1 7N2      -0.058000
     16 C16         -2.1370     3.9120     0.3000 ca         1 7N2       0.351900
     17 N17         -2.4340     4.8390     1.2430 nb         1 7N2      -0.670000
     18 C18         -2.9630     4.4030     2.4100 ca         1 7N2       0.338900
     19 C19         -1.9870     1.5660    -0.6480 c6         1 7N2       0.364100
     20 S20          0.3080     0.8490    -1.6980 sy         1 7N2       1.180600
     21 O21         -0.1910    -0.2300    -2.5580 o          1 7N2      -0.523000
     22 O22          0.4250     2.2280    -2.1850 o          1 7N2      -0.523000
     23 C23          1.8860     0.3610    -0.9890 ca         1 7N2      -0.286500
     24 C24          2.7180     1.3300    -0.3990 ca         1 7N2       0.013000
     25 C25          3.9410     0.9440     0.1720 ca         1 7N2      -0.132000
     26 C26          4.3360    -0.4050     0.1600 ca         1 7N2      -0.007000
     27 C27          3.5060    -1.3850    -0.4290 ca         1 7N2      -0.219300
     28 C28          2.2840    -0.9910    -1.0120 ca         1 7N2       0.031000
     29 C29          3.8990    -2.8640    -0.4480 c3         1 7N2       0.360300
     30 F30          2.9240    -3.6410     0.0760 f          1 7N2      -0.110000
     31 F31          4.1160    -3.2990    -1.7100 f          1 7N2      -0.110000
     32 F32          5.0240    -3.1240     0.2560 f          1 7N2      -0.110000
     33 H1          -4.6720     1.5380    -1.9830 ha         1 7N2       0.139000
     34 H2          -5.8810    -0.8570    -1.8850 ha         1 7N2       0.139000
     35 H3          -4.2390    -2.5640    -0.5510 h4         1 7N2       0.152000
     36 H4          -2.7850    -3.0470     1.0270 ha         1 7N2       0.126000
     37 H5          -0.9120    -3.6170     2.5310 ha         1 7N2       0.122000
     38 H6           1.0080    -2.0530     2.7900 ha         1 7N2       0.125000
     39 H7           1.0720     0.0600     1.5040 ha         1 7N2       0.123000
     40 H8          -3.6350     2.7480     3.6290 ha         1 7N2       0.126000
     41 H9          -3.0850     1.0320     1.8820 ha         1 7N2       0.130000
     42 H10         -1.7090     4.2940    -0.6260 h4         1 7N2       0.021100
     43 H11         -3.1930     5.1650     3.1540 h4         1 7N2       0.020100
     44 H12         -1.9190     2.1640    -1.5710 h1         1 7N2       0.106700
     45 H13          2.4190     2.3770    -0.3720 ha         1 7N2       0.134000
     46 H14          4.5840     1.6910     0.6300 ha         1 7N2       0.131000
     47 H15          5.2870    -0.6770     0.6130 ha         1 7N2       0.136000
     48 H16          1.6380    -1.7430    -1.4660 ha         1 7N2       0.157000
@<TRIPOS>BOND
     1     1     2 1   
     2     1     5 1   
     3     1     6 1   
     4     2     3 2   
     5     2    19 1   
     6     3     4 1   
     7     3    33 1   
     8     4     5 2   
     9     4    34 1   
    10     5    35 1   
    11     6     7 ar  
    12     6    11 ar  
    13     7     8 ar  
    14     7    36 1   
    15     8     9 ar  
    16     8    37 1   
    17     9    10 ar  
    18     9    38 1   
    19    10    11 ar  
    20    10    39 1   
    21    11    12 1   
    22    12    19 1   
    23    12    20 1   
    24    13    15 ar  
    25    13    16 ar  
    26    13    19 1   
    27    14    15 ar  
    28    14    18 ar  
    29    14    40 1   
    30    15    41 1   
    31    16    17 ar  
    32    16    42 1   
    33    17    18 ar  
    34    18    43 1   
    35    19    44 1   
    36    20    21 2   
    37    20    22 2   
    38    20    23 1   
    39    23    24 ar  
    40    23    28 ar  
    41    24    25 ar  
    42    24    45 1   
    43    25    26 ar  
    44    25    46 1   
    45    26    27 ar  
    46    26    47 1   
    47    27    28 ar  
    48    27    29 1   
    49    28    48 1   
    50    29    30 1   
    51    29    31 1   
    52    29    32 1   
@<TRIPOS>SUBSTRUCTURE
     1 7N2         1 TEMP              0 ****  ****    0 ROOT
