@<TRIPOS>MOLECULE
7N3
   36    38     1     0     0
SMALL
No Charge or Current Charge


@<TRIPOS>ATOM
      1 O2          -6.0810     1.8090     0.0360 o          1 7N3      -0.530000
      2 C2          -5.0500     1.1550     0.0340 c          1 7N3       0.580600
      3 C1          -5.0030    -0.3270     0.0340 ca         1 7N3      -0.202600
      4 C6          -6.1880    -1.0950     0.0370 ca         1 7N3      -0.038000
      5 C7          -6.1160    -2.4970     0.0370 ca         1 7N3      -0.134000
      6 C5          -4.8660    -3.1330     0.0340 ca         1 7N3      -0.072000
      7 C4          -3.6890    -2.3640     0.0300 ca         1 7N3      -0.108000
      8 C           -3.7430    -0.9580     0.0300 ca         1 7N3       0.194400
      9 N1          -3.8320     1.7390     0.0300 ns         1 7N3      -0.421400
     10 C3          -2.6430     1.0650     0.0270 cc         1 7N3       0.507800
     11 N           -2.5220    -0.2620     0.0270 nd         1 7N3      -0.655100
     12 S           -1.1250     1.9620     0.0220 ss         1 7N3      -0.167200
     13 C8           0.1850     0.6350     0.0190 c3         1 7N3      -0.046400
     14 C9           1.6170     1.1840     0.0140 c          1 7N3       0.611100
     15 O            1.8730     2.3820     0.0120 o          1 7N3      -0.571100
     16 N2           2.5950     0.2080     0.0130 ns         1 7N3      -0.375100
     17 C10          3.9810     0.3470     0.0090 cc         1 7N3      -0.011400
     18 S1           4.8900     1.8690     0.0050 ss         1 7N3       0.312000
     19 C12          6.4110     0.9910     0.0020 cc         1 7N3      -0.291000
     20 C11          6.2030    -0.3630     0.0040 cd         1 7N3      -0.083000
     21 C13          4.8230    -0.7520     0.0080 cd         1 7N3      -0.269600
     22 C14          4.3210    -2.1590     0.0120 c          1 7N3       0.655700
     23 O1           3.1420    -2.4780     0.0150 o          1 7N3      -0.660100
     24 N3           5.2670    -3.1150     0.0100 nt         1 7N3      -0.590000
     25 H1          -7.1620    -0.6080     0.0400 ha         1 7N3       0.136000
     26 H2          -7.0290    -3.0890     0.0400 ha         1 7N3       0.121000
     27 H3          -4.8060    -4.2190     0.0340 ha         1 7N3       0.117000
     28 H4          -2.7240    -2.8630     0.0280 ha         1 7N3       0.131000
     29 H6           0.0680     0.0070     0.9090 h1         1 7N3       0.110200
     30 H7           0.0630     0.0060    -0.8710 h1         1 7N3       0.110200
     31 H8           2.2430    -0.7480     0.0150 hn         1 7N3       0.381500
     32 H9           7.3430     1.5420    -0.0010 h4         1 7N3       0.154000
     33 H10          7.0300    -1.0670     0.0030 ha         1 7N3       0.126000
     34 H11          4.9870    -4.0830     0.0120 hn         1 7N3       0.318000
     35 H12          6.2410    -2.8590     0.0070 hn         1 7N3       0.318000
     36 H5          -3.8220     2.7470     0.0300 hn         1 7N3       0.341500
@<TRIPOS>BOND
     1     1     2 2   
     2     2     3 1   
     3     2     9 1   
     4     3     4 ar  
     5     3     8 ar  
     6     4     5 ar  
     7     4    25 1   
     8     5     6 ar  
     9     5    26 1   
    10     6     7 ar  
    11     6    27 1   
    12     7     8 ar  
    13     7    28 1   
    14     8    11 1   
    15     9    10 1   
    16     9    36 1   
    17    10    11 2   
    18    10    12 1   
    19    12    13 1   
    20    13    14 1   
    21    13    29 1   
    22    13    30 1   
    23    14    15 2   
    24    14    16 1   
    25    16    17 1   
    26    16    31 1   
    27    17    18 1   
    28    17    21 2   
    29    18    19 1   
    30    19    20 2   
    31    19    32 1   
    32    20    21 1   
    33    20    33 1   
    34    21    22 1   
    35    22    23 2   
    36    22    24 1   
    37    24    34 1   
    38    24    35 1   
@<TRIPOS>SUBSTRUCTURE
     1 7N3         1 TEMP              0 ****  ****    0 ROOT
