@<TRIPOS>MOLECULE
7N3
   36    38     1     0     0
SMALL
bcc


@<TRIPOS>ATOM
      1 O2          -5.8390     1.9670     0.1170 o          1 7N3      -0.605500
      2 C2          -4.8960     1.2000     0.0860 c          1 7N3       0.723100
      3 C1          -4.9820    -0.2550     0.0480 ca         1 7N3      -0.202600
      4 C6          -6.2240    -0.8940     0.0420 ca         1 7N3      -0.056000
      5 C7          -6.2910    -2.2700     0.0040 ca         1 7N3      -0.152000
      6 C5          -5.1110    -3.0220    -0.0260 ca         1 7N3      -0.090000
      7 C4          -3.8800    -2.4030    -0.0210 ca         1 7N3      -0.126000
      8 C           -3.7960    -1.0050     0.0160 ca         1 7N3       0.194400
      9 N1          -3.5980     1.6710     0.0850 ns         1 7N3      -0.488400
     10 C3          -2.5000     0.8610     0.0510 cc         1 7N3       0.507800
     11 N           -2.5520    -0.4170     0.0180 nd         1 7N3      -0.655100
     12 S           -0.9810     1.7330     0.0520 ss         1 7N3      -0.119300
     13 C8           0.1600     0.3350    -0.0020 c3         1 7N3      -0.094300
     14 C9           1.5570     0.9010    -0.0130 c          1 7N3       0.678100
     15 O            1.7900     2.0950    -0.0370 o          1 7N3      -0.571100
     16 N2           2.5300    -0.0350     0.0010 ns         1 7N3      -0.442100
     17 C10          3.8770     0.2330    -0.0080 cc         1 7N3       0.133500
     18 S1           4.5130     1.8310    -0.0640 ss         1 7N3       0.022200
     19 C12          6.1270     1.2270    -0.0550 cc         1 7N3      -0.164100
     20 C11          6.1690    -0.1240    -0.0070 cd         1 7N3      -0.101000
     21 C13          4.8720    -0.7240     0.0200 cd         1 7N3      -0.269600
     22 C14          4.5630    -2.1650     0.0690 c          1 7N3       0.722700
     23 O1           3.3970    -2.5710     0.0900 o          1 7N3      -0.660100
     24 N3           5.6010    -3.0080     0.0910 nt         1 7N3      -0.657000
     25 H1          -7.1300    -0.3020     0.0660 ha         1 7N3       0.154000
     26 H2          -7.2500    -2.7690    -0.0020 ha         1 7N3       0.139000
     27 H3          -5.1660    -4.1020    -0.0540 ha         1 7N3       0.135000
     28 H4          -2.9660    -2.9820    -0.0460 ha         1 7N3       0.149000
     29 H6           0.0120    -0.3140     0.8620 h1         1 7N3       0.110200
     30 H7          -0.0140    -0.2630    -0.8980 h1         1 7N3       0.110200
     31 H8           2.3210    -1.0340     0.0330 hn         1 7N3       0.381500
     32 H9           6.9570     1.9150    -0.0810 h4         1 7N3       0.172000
     33 H10          7.1000    -0.6730     0.0080 ha         1 7N3       0.144000
     34 H11          5.4360    -4.0010     0.1200 hn         1 7N3       0.318000
     35 H12          6.5580    -2.7050     0.0740 hn         1 7N3       0.318000
     36 H5          -3.4820     2.6770     0.1100 hn         1 7N3       0.341500
@<TRIPOS>BOND
     1     1     2 2   
     2     2     3 1   
     3     2     9 1   
     4     3     4 ar  
     5     3     8 ar  
     6     4     5 ar  
     7     4    25 1   
     8     5     6 ar  
     9     5    26 1   
    10     6     7 ar  
    11     6    27 1   
    12     7     8 ar  
    13     7    28 1   
    14     8    11 1   
    15     9    10 1   
    16     9    36 1   
    17    10    11 2   
    18    10    12 1   
    19    12    13 1   
    20    13    14 1   
    21    13    29 1   
    22    13    30 1   
    23    14    15 2   
    24    14    16 1   
    25    16    17 1   
    26    16    31 1   
    27    17    18 1   
    28    17    21 2   
    29    18    19 1   
    30    19    20 2   
    31    19    32 1   
    32    20    21 1   
    33    20    33 1   
    34    21    22 1   
    35    22    23 2   
    36    22    24 1   
    37    24    34 1   
    38    24    35 1   
@<TRIPOS>SUBSTRUCTURE
     1 7N3         1 TEMP              0 ****  ****    0 ROOT
