@<TRIPOS>MOLECULE
7N5
   18    17     1     0     0
SMALL
No Charge or Current Charge


@<TRIPOS>ATOM
      1 C4           0.4330    -0.6560     0.6660 c3         1 7N5      -0.191400
      2 C2           2.9460    -0.6020     0.1010 c3         1 7N5      -0.079400
      3 C3           1.6120     0.1760     0.1120 c3         1 7N5      -0.068400
      4 C5          -0.8790     0.1560     0.6470 c          1 7N5       0.428100
      5 C1           4.1230     0.2270    -0.4500 c3         1 7N5      -0.086100
      6 C6          -1.8510    -0.0260    -0.6370 c          1 7N5       0.646000
      7 O7          -1.9980    -1.1510    -1.1110 o          1 7N5      -0.700500
      8 O8          -2.4250     0.9660    -1.0820 o          1 7N5      -0.700500
      9 O9          -1.1510     0.9190     1.5800 o          1 7N5      -0.568100
     10 H1           0.3270    -1.5380     0.0240 hc         1 7N5       0.060200
     11 H2           0.6610    -0.9570     1.6950 hc         1 7N5       0.060200
     12 H3           3.1870    -0.9270     1.1210 hc         1 7N5       0.030700
     13 H4           2.8350    -1.5080    -0.5070 hc         1 7N5       0.030700
     14 H5           1.3760     0.5010    -0.9090 hc         1 7N5       0.036200
     15 H6           1.7300     1.0830     0.7180 hc         1 7N5       0.036200
     16 H7           3.9290     0.5380    -1.4830 hc         1 7N5       0.021033
     17 H8           4.2840     1.1240     0.1590 hc         1 7N5       0.021033
     18 H9           5.0460    -0.3660    -0.4380 hc         1 7N5       0.021033
@<TRIPOS>BOND
     1     1     3 1   
     2     1     4 1   
     3     1    10 1   
     4     1    11 1   
     5     2     3 1   
     6     2     5 1   
     7     2    12 1   
     8     2    13 1   
     9     3    14 1   
    10     3    15 1   
    11     4     6 1   
    12     4     9 2   
    13     5    16 1   
    14     5    17 1   
    15     5    18 1   
    16     6     7 1   
    17     6     8 1   
@<TRIPOS>SUBSTRUCTURE
     1 7N5         1 TEMP              0 ****  ****    0 ROOT
