@<TRIPOS>MOLECULE
7N5
   18    17     1     0     0
SMALL
abcg2


@<TRIPOS>ATOM
      1 C4           0.4240    -0.4670     0.0190 c3         1 7N5      -0.191400
      2 C2           2.9460    -0.6170    -0.0080 c3         1 7N5      -0.079400
      3 C3           1.7330     0.3050     0.0310 c3         1 7N5      -0.068400
      4 C5          -0.8150     0.3860     0.0570 c          1 7N5       0.428100
      5 C1           4.2620     0.1480    -0.0060 c3         1 7N5      -0.086100
      6 C6          -2.1890    -0.3450    -0.0050 c          1 7N5       0.646000
      7 O7          -2.1390    -1.5870     0.0210 o          1 7N5      -0.700500
      8 O8          -3.1850     0.3900    -0.0710 o          1 7N5      -0.700500
      9 O9          -0.7660     1.5920     0.1320 o          1 7N5      -0.568100
     10 H1           0.3640    -1.1110    -0.8640 hc         1 7N5       0.060200
     11 H2           0.3780    -1.1610     0.8650 hc         1 7N5       0.060200
     12 H3           2.9130    -1.2960     0.8500 hc         1 7N5       0.030700
     13 H4           2.8910    -1.2520    -0.8980 hc         1 7N5       0.030700
     14 H5           1.7720     0.9870    -0.8240 hc         1 7N5       0.036200
     15 H6           1.7880     0.9350     0.9230 hc         1 7N5       0.036200
     16 H7           4.3330     0.8100    -0.8710 hc         1 7N5       0.021033
     17 H8           4.3550     0.7660     0.8890 hc         1 7N5       0.021033
     18 H9           5.1200    -0.5250    -0.0340 hc         1 7N5       0.021033
@<TRIPOS>BOND
     1     1     3 1   
     2     1     4 1   
     3     1    10 1   
     4     1    11 1   
     5     2     3 1   
     6     2     5 1   
     7     2    12 1   
     8     2    13 1   
     9     3    14 1   
    10     3    15 1   
    11     4     6 1   
    12     4     9 2   
    13     5    16 1   
    14     5    17 1   
    15     5    18 1   
    16     6     7 1   
    17     6     8 1   
@<TRIPOS>SUBSTRUCTURE
     1 7N5         1 TEMP              0 ****  ****    0 ROOT
