@<TRIPOS>MOLECULE
7N6
   20    19     1     0     0
SMALL
bcc


@<TRIPOS>ATOM
      1 C2           2.9470    -0.5720    -0.4280 c3         1 7N6      -0.078400
      2 C3           1.7840     0.1430     0.2500 c3         1 7N6      -0.073400
      3 C6          -2.0960    -0.2350    -0.0420 c          1 7N6       0.900600
      4 O8          -2.8440     0.5870    -0.6220 o          1 7N6      -0.829800
      5 O9          -0.7320     1.7330     0.2010 oh         1 7N6      -0.653800
      6 C5          -0.7510     0.3470     0.4480 c3         1 7N6      -0.001900
      7 O7          -2.3180    -1.4380     0.1650 o          1 7N6      -0.829800
      8 C4           0.4250    -0.3580    -0.2210 c3         1 7N6      -0.071400
      9 C1           4.3060    -0.0750     0.0470 c3         1 7N6      -0.085100
     10 H1           2.8660    -1.6480    -0.2470 hc         1 7N6       0.030200
     11 H2           2.8680    -0.4420    -1.5120 hc         1 7N6       0.030200
     12 H3           1.8630     0.0120     1.3360 hc         1 7N6       0.033700
     13 H4           1.8670     1.2180     0.0670 hc         1 7N6       0.033700
     14 H5          -1.5700     1.8590    -0.2830 ho         1 7N6       0.433000
     15 H6          -0.6810     0.1660     1.5320 h1         1 7N6       0.024700
     16 H8           0.3480    -0.2380    -1.3090 hc         1 7N6       0.038200
     17 H9           0.3450    -1.4300    -0.0220 hc         1 7N6       0.038200
     18 H10          4.4260     0.9910    -0.1510 hc         1 7N6       0.020033
     19 H11          4.4250    -0.2230     1.1220 hc         1 7N6       0.020033
     20 H12          5.1230    -0.5990    -0.4510 hc         1 7N6       0.020033
@<TRIPOS>BOND
     1     1     2 1   
     2     1     9 1   
     3     1    10 1   
     4     1    11 1   
     5     2     8 1   
     6     2    12 1   
     7     2    13 1   
     8     3     4 1   
     9     3     6 1   
    10     3     7 1   
    11     5     6 1   
    12     5    14 1   
    13     6     8 1   
    14     6    15 1   
    15     8    16 1   
    16     8    17 1   
    17     9    18 1   
    18     9    19 1   
    19     9    20 1   
@<TRIPOS>SUBSTRUCTURE
     1 7N6         1 TEMP              0 ****  ****    0 ROOT
