@<TRIPOS>MOLECULE
7N6
   20    19     1     0     0
SMALL
No Charge or Current Charge


@<TRIPOS>ATOM
      1 C2           2.9780    -0.5510    -0.4560 c3         1 7N6      -0.078400
      2 C3           1.8000     0.1500     0.2550 c3         1 7N6      -0.073400
      3 C6          -2.1430    -0.3200     0.0180 c          1 7N6       0.690000
      4 O8          -2.8560     0.2890    -0.7710 o          1 7N6      -0.724500
      5 O9          -0.7960     1.7880     0.1920 oh         1 7N6      -0.716000
      6 C5          -0.7870     0.3580     0.4460 c3         1 7N6       0.021300
      7 O7          -2.4860    -1.3530     0.5760 o          1 7N6      -0.724500
      8 C4           0.4180    -0.2940    -0.2820 c3         1 7N6      -0.071400
      9 C1           4.3550    -0.1100     0.0780 c3         1 7N6      -0.085100
     10 H1           2.8810    -1.6370    -0.3360 hc         1 7N6       0.030200
     11 H2           2.9300    -0.3410    -1.5320 hc         1 7N6       0.030200
     12 H3           1.8520    -0.0600     1.3310 hc         1 7N6       0.033700
     13 H4           1.9070     1.2360     0.1360 hc         1 7N6       0.033700
     14 H5          -1.5760     1.9310    -0.3990 ho         1 7N6       0.472000
     15 H6          -0.6700     0.1790     1.5240 h1         1 7N6       0.024700
     16 H8           0.3540    -0.0800    -1.3560 hc         1 7N6       0.038200
     17 H9           0.3400    -1.3830    -0.1760 hc         1 7N6       0.038200
     18 H10          4.4970     0.9680    -0.0600 hc         1 7N6       0.020033
     19 H11          4.4470    -0.3390     1.1470 hc         1 7N6       0.020033
     20 H12          5.1570    -0.6340    -0.4550 hc         1 7N6       0.020033
@<TRIPOS>BOND
     1     1     2 1   
     2     1     9 1   
     3     1    10 1   
     4     1    11 1   
     5     2     8 1   
     6     2    12 1   
     7     2    13 1   
     8     3     4 1   
     9     3     6 1   
    10     3     7 1   
    11     5     6 1   
    12     5    14 1   
    13     6     8 1   
    14     6    15 1   
    15     8    16 1   
    16     8    17 1   
    17     9    18 1   
    18     9    19 1   
    19     9    20 1   
@<TRIPOS>SUBSTRUCTURE
     1 7N6         1 TEMP              0 ****  ****    0 ROOT
