@<TRIPOS>MOLECULE
7N9
   22    22     1     0     0
SMALL
No Charge or Current Charge


@<TRIPOS>ATOM
      1 C4          -1.7130    -0.0910     0.0140 ca         1 7N9       0.085000
      2 C5          -0.8330     0.9720     0.2720 ca         1 7N9      -0.033000
      3 C6           0.5580     0.7470     0.3150 ca         1 7N9      -0.219300
      4 C7           1.4940     1.9010     0.6010 c3         1 7N9       0.181900
      5 N            2.0440     2.3370    -0.7170 nz         1 7N9      -0.973000
      6 C            3.0540    -2.0150    -0.0510 c3         1 7N9       0.144900
      7 Cl          -3.4480     0.1980    -0.0380 cl         1 7N9      -0.142000
      8 C1           1.0650    -0.5500     0.0990 ca         1 7N9       0.165100
      9 C2           0.1760    -1.6160    -0.1600 ca         1 7N9      -0.174000
     10 C3          -1.2110    -1.3840    -0.2020 ca         1 7N9      -0.013000
     11 H8          -1.2350     1.9700     0.4390 ha         1 7N9       0.139000
     12 H10          0.9670     2.7340     1.0790 hx         1 7N9       0.105700
     13 H9           2.3140     1.5840     1.2560 hx         1 7N9       0.105700
     14 HN3          2.5560     1.5760    -1.1860 hn         1 7N9       0.511000
     15 HN2          1.3120     2.6370    -1.3750 hn         1 7N9       0.511000
     16 HN1          2.7060     3.1240    -0.6400 hn         1 7N9       0.511000
     17 H3           2.7160    -2.7290     0.7100 h1         1 7N9       0.062367
     18 H5           2.8180    -2.4200    -1.0440 h1         1 7N9       0.062367
     19 H4           4.1450    -1.9290     0.0280 h1         1 7N9       0.062367
     20 H6           0.5370    -2.6260    -0.3320 ha         1 7N9       0.147000
     21 H7          -1.8970    -2.2040    -0.4010 ha         1 7N9       0.156000
     22 O            2.4350    -0.7270     0.1410 os         1 7N9      -0.394100
@<TRIPOS>BOND
     1     1     2 ar  
     2     1     7 1   
     3     1    10 ar  
     4     2     3 ar  
     5     2    11 1   
     6     3     4 1   
     7     3     8 ar  
     8     4     5 1   
     9     4    12 1   
    10     4    13 1   
    11     5    14 1   
    12     5    15 1   
    13     5    16 1   
    14     6    17 1   
    15     6    18 1   
    16     6    19 1   
    17     6    22 1   
    18     8     9 ar  
    19     8    22 1   
    20     9    10 ar  
    21     9    20 1   
    22    10    21 1   
@<TRIPOS>SUBSTRUCTURE
     1 7N9         1 TEMP              0 ****  ****    0 ROOT
