@<TRIPOS>MOLECULE
7N9
   22    22     1     0     0
SMALL
abcg2


@<TRIPOS>ATOM
      1 C4          -1.7230    -0.1450     0.0740 ca         1 7N9       0.085000
      2 C5          -0.8720     0.9300     0.2830 ca         1 7N9      -0.033000
      3 C6           0.5000     0.7390     0.2810 ca         1 7N9      -0.219300
      4 C7           1.4190     1.8920     0.5440 c3         1 7N9       0.181900
      5 N            2.2340     2.2310    -0.6560 nz         1 7N9      -0.973000
      6 C            2.9700    -1.8970    -0.1480 c3         1 7N9       0.144900
      7 CL          -3.4370     0.1070     0.0840 cl         1 7N9      -0.142000
      8 C1           1.0220    -0.5430     0.0590 ca         1 7N9       0.165100
      9 C2           0.1600    -1.6140    -0.1490 ca         1 7N9      -0.174000
     10 C3          -1.2140    -1.4120    -0.1400 ca         1 7N9      -0.013000
     11 H8          -1.2740     1.9200     0.4560 ha         1 7N9       0.139000
     12 H10          0.8590     2.7860     0.8040 hx         1 7N9       0.105700
     13 H9           2.1240     1.6860     1.3470 hx         1 7N9       0.105700
     14 HN3          2.8320     1.4540    -0.9380 hn         1 7N9       0.511000
     15 HN2          1.6520     2.4790    -1.4560 hn         1 7N9       0.511000
     16 HN1          2.8460     3.0260    -0.4730 hn         1 7N9       0.511000
     17 H3           2.7050    -2.6000     0.6450 h1         1 7N9       0.062367
     18 H5           2.6940    -2.3250    -1.1140 h1         1 7N9       0.062367
     19 H4           4.0420    -1.7270    -0.1270 h1         1 7N9       0.062367
     20 H6           0.5340    -2.6140    -0.3210 ha         1 7N9       0.147000
     21 H7          -1.8760    -2.2510    -0.3020 ha         1 7N9       0.156000
     22 O            2.3620    -0.6320     0.0570 os         1 7N9      -0.394100
@<TRIPOS>BOND
     1     1     2 ar  
     2     1     7 1   
     3     1    10 ar  
     4     2     3 ar  
     5     2    11 1   
     6     3     4 1   
     7     3     8 ar  
     8     4     5 1   
     9     4    12 1   
    10     4    13 1   
    11     5    14 1   
    12     5    15 1   
    13     5    16 1   
    14     6    17 1   
    15     6    18 1   
    16     6    19 1   
    17     6    22 1   
    18     8     9 ar  
    19     8    22 1   
    20     9    10 ar  
    21     9    20 1   
    22    10    21 1   
@<TRIPOS>SUBSTRUCTURE
     1 7N9         1 TEMP              0 ****  ****    0 ROOT
