@<TRIPOS>MOLECULE
7NA
   28    29     1     0     0
SMALL
bcc


@<TRIPOS>ATOM
      1 C1A          4.3680    -1.7010     0.0670 c3         1 7NA       0.136700
      2 O1C         -2.0380    -2.2890     0.9160 o          1 7NA      -0.814800
      3 O1D         -2.4940    -2.0220    -1.2520 o          1 7NA      -0.814800
      4 O1E         -3.7080     0.5890    -0.1480 oh         1 7NA      -0.468100
      5 C1F         -1.9010     2.1710    -0.0790 ca         1 7NA      -0.207000
      6 C1G         -0.5570     2.4150    -0.0460 ca         1 7NA      -0.124000
      7 C1H          2.6430     0.5170     0.0180 ca         1 7NA      -0.208000
      8 C1I          0.8060    -1.0520     0.0020 ca         1 7NA      -0.112000
      9 O1J          2.9670    -1.8890     0.0480 os         1 7NA      -0.321900
     10 C1K         -2.0710    -1.6430    -0.1470 c          1 7NA       0.938200
     11 C1L          1.7770     1.5820    -0.0030 ca         1 7NA      -0.050300
     12 C1M          2.1570    -0.8100     0.0210 ca         1 7NA       0.091100
     13 C1N         -2.3810     0.8440    -0.1120 ca         1 7NA       0.118100
     14 C1O         -1.5170    -0.2250    -0.0910 ca         1 7NA      -0.130600
     15 C1P          0.3740     1.3530    -0.0270 ca         1 7NA      -0.088000
     16 C1Q         -0.1190     0.0170    -0.0340 ca         1 7NA       0.039000
     17 H1A          4.8100    -2.6950     0.0810 h1         1 7NA       0.025367
     18 H1AA         4.7250    -1.1730    -0.8210 h1         1 7NA       0.025367
     19 H1AB         4.7000    -1.1590     0.9560 h1         1 7NA       0.025367
     20 H1B          1.9970     3.5370    -0.8830 hc         1 7NA       0.029367
     21 H1BA         1.9810     3.5420     0.8710 hc         1 7NA       0.029367
     22 H1BB         3.4090     2.9800     0.0080 hc         1 7NA       0.029367
     23 HO1E        -4.2070     1.4130    -0.1610 ho         1 7NA       0.390000
     24 H1F         -2.6020     2.9990    -0.0860 ha         1 7NA       0.105000
     25 H1G         -0.2130     3.4410    -0.0310 ha         1 7NA       0.106000
     26 H1H          3.7070     0.7120     0.0330 ha         1 7NA       0.111000
     27 H1I          0.4570    -2.0760     0.0230 ha         1 7NA       0.178000
     28 C1B          2.3210     2.9810    -0.0020 c3         1 7NA      -0.039800
@<TRIPOS>BOND
     1     1     9 1   
     2     1    17 1   
     3     1    18 1   
     4     1    19 1   
     5     2    10 1   
     6     3    10 1   
     7     4    13 1   
     8     4    23 1   
     9     5     6 ar  
    10     5    13 ar  
    11     5    24 1   
    12     6    15 ar  
    13     6    25 1   
    14     7    11 ar  
    15     7    12 ar  
    16     7    26 1   
    17     8    12 ar  
    18     8    16 ar  
    19     8    27 1   
    20     9    12 1   
    21    10    14 1   
    22    11    15 ar  
    23    11    28 1   
    24    13    14 ar  
    25    14    16 ar  
    26    15    16 ar  
    27    20    28 1   
    28    21    28 1   
    29    22    28 1   
@<TRIPOS>SUBSTRUCTURE
     1 7NA         1 TEMP              0 ****  ****    0 ROOT
