@<TRIPOS>MOLECULE
7NA
   28    29     1     0     0
SMALL
No Charge or Current Charge


@<TRIPOS>ATOM
      1 C1A          4.4410    -1.7700     0.0510 c3         1 7NA       0.159900
      2 O1C         -2.2620    -2.1880     0.9670 o          1 7NA      -0.709500
      3 O1D         -2.2100    -2.1810    -1.1900 o          1 7NA      -0.709500
      4 O1E         -3.7820     0.6380    -0.1390 oh         1 7NA      -0.507100
      5 C1F         -1.9580     2.1670    -0.0890 ca         1 7NA      -0.189000
      6 C1G         -0.5790     2.4200    -0.0550 ca         1 7NA      -0.106000
      7 C1H          2.6420     0.5150     0.0160 ca         1 7NA      -0.190000
      8 C1I          0.7860    -1.0500    -0.0340 ca         1 7NA      -0.094000
      9 O1J          3.0090    -1.9030     0.0160 os         1 7NA      -0.345100
     10 C1K         -2.0710    -1.6310    -0.1060 c          1 7NA       0.727600
     11 C1L          1.7450     1.5990    -0.0020 ca         1 7NA      -0.050300
     12 C1M          2.1660    -0.8100    -0.0000 ca         1 7NA       0.091100
     13 C1N         -2.4350     0.8500    -0.1060 ca         1 7NA       0.118100
     14 C1O         -1.5340    -0.2310    -0.0880 ca         1 7NA      -0.130600
     15 C1P          0.3470     1.3530    -0.0370 ca         1 7NA      -0.088000
     16 C1Q         -0.1370     0.0180    -0.0530 ca         1 7NA       0.039000
     17 H1A          4.9140    -2.7590     0.0590 h1         1 7NA       0.025367
     18 H1AA         4.8040    -1.2260    -0.8300 h1         1 7NA       0.025367
     19 H1AB         4.7600    -1.2320     0.9540 h1         1 7NA       0.025367
     20 H1B          2.0150     3.5750    -0.8760 hc         1 7NA       0.029367
     21 H1BA         1.9720     3.5690     0.8990 hc         1 7NA       0.029367
     22 H1BB         3.4130     3.0160     0.0440 hc         1 7NA       0.029367
     23 HO1E        -4.2310     1.5100    -0.1470 ho         1 7NA       0.429000
     24 H1F         -2.6520     3.0030    -0.1030 ha         1 7NA       0.087000
     25 H1G         -0.2490     3.4550    -0.0430 ha         1 7NA       0.088000
     26 H1H          3.7090     0.7180     0.0430 ha         1 7NA       0.093000
     27 H1I          0.4490    -2.0820    -0.0460 ha         1 7NA       0.160000
     28 C1B          2.3170     3.0160     0.0170 c3         1 7NA      -0.039800
@<TRIPOS>BOND
     1     1     9 1   
     2     1    17 1   
     3     1    18 1   
     4     1    19 1   
     5     2    10 1   
     6     3    10 1   
     7     4    13 1   
     8     4    23 1   
     9     5     6 ar  
    10     5    13 ar  
    11     5    24 1   
    12     6    15 ar  
    13     6    25 1   
    14     7    11 ar  
    15     7    12 ar  
    16     7    26 1   
    17     8    12 ar  
    18     8    16 ar  
    19     8    27 1   
    20     9    12 1   
    21    10    14 1   
    22    11    15 ar  
    23    11    28 1   
    24    13    14 ar  
    25    14    16 ar  
    26    15    16 ar  
    27    20    28 1   
    28    21    28 1   
    29    22    28 1   
@<TRIPOS>SUBSTRUCTURE
     1 7NA         1 TEMP              0 ****  ****    0 ROOT
