@<TRIPOS>MOLECULE
7NC
   36    38     1     0     0
SMALL
No Charge or Current Charge


@<TRIPOS>ATOM
      1 O1          -1.2610    -1.2240    -2.1240 o          1 7NC      -0.512100
      2 C2          -1.0950    -0.2820    -1.3570 c          1 7NC       0.597700
      3 C3           0.3080     0.1500    -0.9200 c3         1 7NC      -0.068400
      4 S            1.4280    -1.2950    -0.5640 ss         1 7NC      -0.178200
      5 C4           2.9530    -0.5490    -0.0860 cc         1 7NC       0.510800
      6 N1           4.0180    -1.3250     0.2470 ns         1 7NC      -0.402400
      7 C7           5.2120    -0.8400     0.6240 c          1 7NC       0.566200
      8 O            6.1550    -1.5530     0.9200 o          1 7NC      -0.539000
      9 C6           5.2340     0.6070     0.6330 cc         1 7NC      -0.368200
     10 N            2.9640     0.7830    -0.0800 nd         1 7NC      -0.684300
     11 C5           4.1590     1.4000     0.2950 cd         1 7NC       0.201400
     12 C8           4.1960     2.9040     0.3130 c3         1 7NC      -0.050900
     13 C1          -2.2610     0.5330    -0.8530 ca         1 7NC      -0.157600
     14 C11         -2.1990     1.9380    -0.9920 ca         1 7NC      -0.060000
     15 C12         -3.2590     2.7490    -0.5640 ca         1 7NC      -0.132000
     16 C10         -4.3980     2.1700     0.0120 ca         1 7NC      -0.058000
     17 C9          -4.4760     0.7750     0.1720 ca         1 7NC      -0.056000
     18 C16         -5.6240     0.2160     0.7660 ca         1 7NC      -0.099000
     19 C15         -5.7190    -1.1710     0.9520 ca         1 7NC      -0.104000
     20 C14         -4.6640    -2.0030     0.5510 ca         1 7NC      -0.098000
     21 C13         -3.5160    -1.4530    -0.0450 ca         1 7NC      -0.099000
     22 C           -3.4090    -0.0570    -0.2540 ca         1 7NC       0.013000
     23 H1           0.7350     0.7710    -1.7160 h1         1 7NC       0.104700
     24 H2           0.2100     0.7590    -0.0140 h1         1 7NC       0.104700
     25 H3           6.1780     1.0440     0.9330 ha         1 7NC       0.214000
     26 H5           3.5750     3.3280    -0.4850 hc         1 7NC       0.055367
     27 H6           3.8250     3.2910     1.2690 hc         1 7NC       0.055367
     28 H7           5.2160     3.2790     0.1710 hc         1 7NC       0.055367
     29 H8          -1.3300     2.4070    -1.4510 ha         1 7NC       0.116000
     30 H9          -3.2010     3.8280    -0.6840 ha         1 7NC       0.121000
     31 H10         -5.2160     2.8080     0.3390 ha         1 7NC       0.117000
     32 H11         -6.4430     0.8550     1.0880 ha         1 7NC       0.114000
     33 H12         -6.6070    -1.6000     1.4130 ha         1 7NC       0.118000
     34 H13         -4.7340    -3.0780     0.7040 ha         1 7NC       0.117000
     35 H14         -2.7170    -2.1310    -0.3280 ha         1 7NC       0.144000
     36 H16          3.9260    -2.3290     0.2170 hn         1 7NC       0.340500
@<TRIPOS>BOND
     1     1     2 2   
     2     2     3 1   
     3     2    13 1   
     4     3     4 1   
     5     3    23 1   
     6     3    24 1   
     7     4     5 1   
     8     5     6 1   
     9     5    10 2   
    10     6     7 1   
    11     6    36 1   
    12     7     8 2   
    13     7     9 1   
    14     9    11 2   
    15     9    25 1   
    16    10    11 1   
    17    11    12 1   
    18    12    26 1   
    19    12    27 1   
    20    12    28 1   
    21    13    14 ar  
    22    13    22 ar  
    23    14    15 ar  
    24    14    29 1   
    25    15    16 ar  
    26    15    30 1   
    27    16    17 ar  
    28    16    31 1   
    29    17    18 ar  
    30    17    22 ar  
    31    18    19 ar  
    32    18    32 1   
    33    19    20 ar  
    34    19    33 1   
    35    20    21 ar  
    36    20    34 1   
    37    21    22 ar  
    38    21    35 1   
@<TRIPOS>SUBSTRUCTURE
     1 7NC         1 TEMP              0 ****  ****    0 ROOT
