@<TRIPOS>MOLECULE
7NC
   36    38     1     0     0
SMALL
bcc


@<TRIPOS>ATOM
      1 O1          -1.0610    -1.8420    -0.1510 o          1 7NC      -0.512100
      2 C2          -0.9910    -0.6320    -0.1020 c          1 7NC       0.597700
      3 C3           0.3850     0.0050    -0.0740 c3         1 7NC      -0.116300
      4 S            1.5930    -1.3400    -0.1010 ss         1 7NC      -0.130300
      5 C4           3.0700    -0.4040    -0.0570 cc         1 7NC       0.510800
      6 N1           4.2010    -1.1430    -0.0640 ns         1 7NC      -0.469400
      7 C7           5.4780    -0.5860    -0.0320 c          1 7NC       0.708700
      8 O            6.4630    -1.3070    -0.0420 o          1 7NC      -0.614500
      9 C6           5.4560     0.8480     0.0130 cc         1 7NC      -0.318200
     10 N            3.0640     0.8870    -0.0200 nd         1 7NC      -0.684300
     11 C5           4.2740     1.5200     0.0160 cd         1 7NC       0.201400
     12 C8           4.2080     3.0100     0.0570 c3         1 7NC      -0.050900
     13 C1          -2.1680     0.2690    -0.0680 ca         1 7NC      -0.157600
     14 C11         -1.9320     1.6290    -0.0660 ca         1 7NC      -0.078000
     15 C12         -2.9700     2.5710    -0.0430 ca         1 7NC      -0.150000
     16 C10         -4.2650     2.1410    -0.0210 ca         1 7NC      -0.076000
     17 C9          -4.5700     0.7610    -0.0180 ca         1 7NC      -0.056000
     18 C16         -5.9230     0.3510     0.0110 ca         1 7NC      -0.117000
     19 C15         -6.2540    -0.9750     0.0180 ca         1 7NC      -0.122000
     20 C14         -5.2300    -1.9380    -0.0040 ca         1 7NC      -0.116000
     21 C13         -3.9090    -1.5720    -0.0330 ca         1 7NC      -0.117000
     22 C           -3.5250    -0.2070    -0.0430 ca         1 7NC       0.013000
     23 H1           0.5400     0.6540    -0.9370 h1         1 7NC       0.104700
     24 H2           0.5240     0.6100     0.8230 h1         1 7NC       0.104700
     25 H3           6.3990     1.3760     0.0440 ha         1 7NC       0.164000
     26 H5           3.7100     3.3880    -0.8370 hc         1 7NC       0.055367
     27 H6           3.6200     3.3380     0.9150 hc         1 7NC       0.055367
     28 H7           5.1970     3.4570     0.1200 hc         1 7NC       0.055367
     29 H8          -0.9200     2.0100    -0.0830 ha         1 7NC       0.134000
     30 H9          -2.7360     3.6260    -0.0450 ha         1 7NC       0.139000
     31 H10         -5.0790     2.8550    -0.0040 ha         1 7NC       0.135000
     32 H11         -6.6940     1.1110     0.0280 ha         1 7NC       0.132000
     33 H12         -7.2910    -1.2820     0.0400 ha         1 7NC       0.136000
     34 H13         -5.4850    -2.9890     0.0040 ha         1 7NC       0.135000
     35 H14         -3.1610    -2.3440    -0.0500 ha         1 7NC       0.162000
     36 H16          4.1470    -2.1540    -0.0910 hn         1 7NC       0.340500
@<TRIPOS>BOND
     1     1     2 2   
     2     2     3 1   
     3     2    13 1   
     4     3     4 1   
     5     3    23 1   
     6     3    24 1   
     7     4     5 1   
     8     5     6 1   
     9     5    10 2   
    10     6     7 1   
    11     6    36 1   
    12     7     8 2   
    13     7     9 1   
    14     9    11 2   
    15     9    25 1   
    16    10    11 1   
    17    11    12 1   
    18    12    26 1   
    19    12    27 1   
    20    12    28 1   
    21    13    14 ar  
    22    13    22 ar  
    23    14    15 ar  
    24    14    29 1   
    25    15    16 ar  
    26    15    30 1   
    27    16    17 ar  
    28    16    31 1   
    29    17    18 ar  
    30    17    22 ar  
    31    18    19 ar  
    32    18    32 1   
    33    19    20 ar  
    34    19    33 1   
    35    20    21 ar  
    36    20    34 1   
    37    21    22 ar  
    38    21    35 1   
@<TRIPOS>SUBSTRUCTURE
     1 7NC         1 TEMP              0 ****  ****    0 ROOT
