@<TRIPOS>MOLECULE
7NE
   37    39     1     0     0
SMALL
No Charge or Current Charge


@<TRIPOS>ATOM
      1 C1          11.3470    14.5620    12.4700 ca         1 7NE      -0.103000
      2 C2          10.0230    15.0190    12.3510 ca         1 7NE      -0.099000
      3 C3           9.0090    14.4500    13.1410 ca         1 7NE      -0.098000
      4 C4           9.3160    13.4210    14.0510 ca         1 7NE      -0.024000
      5 C5          10.6460    12.9630    14.1700 ca         1 7NE      -0.043000
      6 C6          11.6590    13.5360    13.3780 ca         1 7NE      -0.095000
      7 C14         10.9520    11.9380    15.0850 ca         1 7NE      -0.074000
      8 C15          9.9350    11.3710    15.8730 ca         1 7NE      -0.129000
      9 C16          8.6070    11.8150    15.7500 ca         1 7NE       0.267000
     10 C17          8.3040    12.8470    14.8430 ca         1 7NE      -0.095000
     11 C19          6.3820    10.7500    16.2520 c2         1 7NE       0.455100
     12 N18          7.6230    11.2420    16.5540 nu         1 7NE      -0.806000
     13 C20          5.6650     9.9740    17.0570 ce         1 7NE      -0.508400
     14 C21          4.4080     9.6780    16.3770 c          1 7NE       0.596300
     15 C22          4.5540    10.4270    15.0350 c5         1 7NE       0.025600
     16 O23          5.8580    11.0780    15.0430 os         1 7NE      -0.327100
     17 O24          3.4790     8.9960    16.7870 o          1 7NE      -0.504100
     18 C25          6.0060     9.4600    18.4030 c          1 7NE       0.660300
     19 O26          7.2720     9.8160    18.7990 os         1 7NE      -0.505100
     20 C27          7.7240     9.4570    20.1210 c3         1 7NE       0.176600
     21 C28          7.0840    10.4180    21.1420 c3         1 7NE      -0.121100
     22 O29          5.2500     8.7780    19.0770 o          1 7NE      -0.475000
     23 H1          12.1310    15.0040    11.8590 ha         1 7NE       0.117000
     24 H2           9.7840    15.8140    11.6480 ha         1 7NE       0.117000
     25 H3           7.9870    14.8090    13.0430 ha         1 7NE       0.117000
     26 H4          12.6870    13.1880    13.4650 ha         1 7NE       0.116000
     27 H5          11.9750    11.5810    15.1870 ha         1 7NE       0.121000
     28 H6          10.1810    10.5800    16.5750 ha         1 7NE       0.121000
     29 H7           7.2840    13.2090    14.7620 ha         1 7NE       0.132000
     30 H8           7.9680    10.8340    17.4270 hn         1 7NE       0.545000
     31 H9           3.7590    11.1780    14.9480 h1         1 7NE       0.093700
     32 H10          4.4970     9.7090    14.2070 h1         1 7NE       0.093700
     33 H11          7.4780     8.4150    20.3640 h1         1 7NE       0.054200
     34 H12          8.8160     9.5630    20.1810 h1         1 7NE       0.054200
     35 H13          7.4800    10.2190    22.1450 hc         1 7NE       0.047700
     36 H14          7.3120    11.4600    20.8860 hc         1 7NE       0.047700
     37 H15          5.9960    10.2960    21.1790 hc         1 7NE       0.047700
@<TRIPOS>BOND
     1     1     2 ar  
     2     1     6 ar  
     3     1    23 1   
     4     2     3 ar  
     5     2    24 1   
     6     3     4 ar  
     7     3    25 1   
     8     4     5 ar  
     9     4    10 ar  
    10     5     6 ar  
    11     5     7 ar  
    12     6    26 1   
    13     7     8 ar  
    14     7    27 1   
    15     8     9 ar  
    16     8    28 1   
    17     9    10 ar  
    18     9    12 1   
    19    10    29 1   
    20    11    12 1   
    21    11    13 2   
    22    11    16 1   
    23    12    30 1   
    24    13    14 1   
    25    13    18 1   
    26    14    15 1   
    27    14    17 2   
    28    15    16 1   
    29    15    31 1   
    30    15    32 1   
    31    18    19 1   
    32    18    22 2   
    33    19    20 1   
    34    20    21 1   
    35    20    33 1   
    36    20    34 1   
    37    21    35 1   
    38    21    36 1   
    39    21    37 1   
@<TRIPOS>SUBSTRUCTURE
     1 7NE         1 TEMP              0 ****  ****    0 ROOT
