@<TRIPOS>MOLECULE
7NE
   37    39     1     0     0
SMALL
bcc


@<TRIPOS>ATOM
      1 C1          11.2410    14.6190    12.4140 ca         1 7NE      -0.121000
      2 C2           9.9000    15.0540    12.3720 ca         1 7NE      -0.117000
      3 C3           8.9530    14.4590    13.1600 ca         1 7NE      -0.116000
      4 C4           9.3020    13.3990    14.0300 ca         1 7NE      -0.024000
      5 C5          10.6520    12.9650    14.0730 ca         1 7NE      -0.043000
      6 C6          11.6080    13.5980    13.2480 ca         1 7NE      -0.113000
      7 C14         10.9970    11.9120    14.9510 ca         1 7NE      -0.092000
      8 C15         10.0510    11.3130    15.7310 ca         1 7NE      -0.147000
      9 C16          8.7060    11.7490    15.6850 ca         1 7NE       0.128600
     10 C17          8.3400    12.7800    14.8610 ca         1 7NE      -0.113000
     11 C19          6.5750    10.6880    16.2950 c2         1 7NE       0.455100
     12 N18          7.8070    11.0970    16.5540 nu         1 7NE      -0.612400
     13 C20          5.6950     9.9770    17.1160 ce         1 7NE      -0.508400
     14 C21          4.4980     9.7700    16.3530 c          1 7NE       0.596300
     15 C22          4.7560    10.4360    15.0120 c5         1 7NE       0.002400
     16 O23          6.0820    10.9600    15.1030 os         1 7NE      -0.303900
     17 O24          3.4600     9.2010    16.6280 o          1 7NE      -0.504100
     18 C25          5.9160     9.4990    18.4650 c          1 7NE       0.709300
     19 O26          7.1310     9.8320    18.9230 os         1 7NE      -0.481900
     20 C27          7.5080     9.4420    20.2520 c3         1 7NE       0.153400
     21 C28          6.9900    10.4060    21.2960 c3         1 7NE      -0.121100
     22 O29          5.1170     8.8670    19.1150 o          1 7NE      -0.524000
     23 H1          11.9790    15.0980    11.7840 ha         1 7NE       0.135000
     24 H2           9.6210    15.8630    11.7090 ha         1 7NE       0.135000
     25 H3           7.9230    14.7930    13.1260 ha         1 7NE       0.135000
     26 H4          12.6380    13.2610    13.2860 ha         1 7NE       0.134000
     27 H5          12.0250    11.5740    14.9950 ha         1 7NE       0.139000
     28 H6          10.3210    10.4990    16.3920 ha         1 7NE       0.139000
     29 H7           7.3250    13.1540    14.8410 ha         1 7NE       0.150000
     30 H8           8.1710    10.8030    17.4510 hn         1 7NE       0.489800
     31 H9           4.0620    11.2560    14.8200 h1         1 7NE       0.093700
     32 H10          4.7110     9.7270    14.1840 h1         1 7NE       0.093700
     33 H11          7.1750     8.4230    20.4510 h1         1 7NE       0.054200
     34 H12          8.5970     9.4420    20.2370 h1         1 7NE       0.054200
     35 H13          7.3760    10.1140    22.2730 hc         1 7NE       0.047700
     36 H14          7.3260    11.4240    21.0960 hc         1 7NE       0.047700
     37 H15          5.9030    10.4020    21.3530 hc         1 7NE       0.047700
@<TRIPOS>BOND
     1     1     2 ar  
     2     1     6 ar  
     3     1    23 1   
     4     2     3 ar  
     5     2    24 1   
     6     3     4 ar  
     7     3    25 1   
     8     4     5 ar  
     9     4    10 ar  
    10     5     6 ar  
    11     5     7 ar  
    12     6    26 1   
    13     7     8 ar  
    14     7    27 1   
    15     8     9 ar  
    16     8    28 1   
    17     9    10 ar  
    18     9    12 1   
    19    10    29 1   
    20    11    12 1   
    21    11    13 2   
    22    11    16 1   
    23    12    30 1   
    24    13    14 1   
    25    13    18 1   
    26    14    15 1   
    27    14    17 2   
    28    15    16 1   
    29    15    31 1   
    30    15    32 1   
    31    18    19 1   
    32    18    22 2   
    33    19    20 1   
    34    20    21 1   
    35    20    33 1   
    36    20    34 1   
    37    21    35 1   
    38    21    36 1   
    39    21    37 1   
@<TRIPOS>SUBSTRUCTURE
     1 7NE         1 TEMP              0 ****  ****    0 ROOT
