@<TRIPOS>MOLECULE
7NF
   19    19     1     0     0
SMALL
No Charge or Current Charge


@<TRIPOS>ATOM
      1 O11          4.2750     0.5680     0.0130 o          1 7NF      -0.696500
      2 C47          3.4130    -0.3050    -0.0080 c          1 7NF       0.631500
      3 C48          1.9460     0.0990     0.0070 cc         1 7NF       0.230500
      4 N9           0.8880    -0.7970    -0.0150 nc         1 7NF      -0.531000
      5 C50         -0.2850    -0.1580     0.0060 cd         1 7NF       0.331900
      6 C51         -1.6140    -0.8700    -0.0100 c          1 7NF       0.526600
      7 O10         -1.7300    -2.0930    -0.0430 o          1 7NF      -0.466000
      8 O9          -2.7060    -0.0300     0.0160 os         1 7NF      -0.452100
      9 C52         -4.0200    -0.6120     0.0040 c3         1 7NF       0.169600
     10 C53         -5.0350     0.5410     0.0380 c3         1 7NF      -0.094100
     11 S           -0.1680     1.6050     0.0540 ss         1 7NF      -0.098400
     12 C49          1.5750     1.4270     0.0440 cd         1 7NF      -0.230000
     13 H2          -4.1760    -1.2100    -0.9040 h1         1 7NF       0.042700
     14 H3          -4.1710    -1.2580     0.8790 h1         1 7NF       0.042700
     15 H4          -4.9060     1.1430     0.9450 hc         1 7NF       0.041033
     16 H5          -4.9100     1.1910    -0.8360 hc         1 7NF       0.041033
     17 H6          -6.0580     0.1460     0.0300 hc         1 7NF       0.041033
     18 H7           2.2220     2.2950     0.0660 h4         1 7NF       0.165000
     19 OXT          3.7090    -1.4950    -0.0410 o          1 7NF      -0.696500
@<TRIPOS>BOND
     1     1     2 1   
     2     2     3 1   
     3     2    19 1   
     4     3     4 1   
     5     3    12 2   
     6     4     5 2   
     7     5     6 1   
     8     5    11 1   
     9     6     7 2   
    10     6     8 1   
    11     8     9 1   
    12     9    10 1   
    13     9    13 1   
    14     9    14 1   
    15    10    15 1   
    16    10    16 1   
    17    10    17 1   
    18    11    12 1   
    19    12    18 1   
@<TRIPOS>SUBSTRUCTURE
     1 7NF         1 TEMP              0 ****  ****    0 ROOT
