@<TRIPOS>MOLECULE
7NF
   19    19     1     0     0
SMALL
bcc


@<TRIPOS>ATOM
      1 O11          4.1510     0.5990     0.0190 o          1 7NF      -0.801800
      2 C47          3.3120    -0.3210    -0.0120 c          1 7NF       0.842100
      3 C48          1.8610     0.1240     0.0090 cc         1 7NF       0.295800
      4 N9           0.8380    -0.7700    -0.0100 nc         1 7NF      -0.531000
      5 C50         -0.3110    -0.1750     0.0110 cd         1 7NF       0.331900
      6 C51         -1.5980    -0.9020    -0.0060 c          1 7NF       0.575600
      7 O10         -1.6840    -2.1020    -0.0370 o          1 7NF      -0.515000
      8 O9          -2.6110    -0.0580     0.0170 os         1 7NF      -0.428900
      9 C52         -3.9460    -0.5970     0.0040 c3         1 7NF       0.146400
     10 C53         -4.9130     0.5590     0.0350 c3         1 7NF      -0.094100
     11 S           -0.2330     1.5460     0.0560 ss         1 7NF      -0.243300
     12 C49          1.4620     1.4330     0.0460 cd         1 7NF      -0.168400
     13 H2          -4.0810    -1.2010    -0.8950 h1         1 7NF       0.042700
     14 H3          -4.0800    -1.2480     0.8700 h1         1 7NF       0.042700
     15 H4          -4.7950     1.1590     0.9370 hc         1 7NF       0.041033
     16 H5          -4.7950     1.2050    -0.8340 hc         1 7NF       0.041033
     17 H6          -5.9300     0.1670     0.0250 hc         1 7NF       0.041033
     18 H7           2.0870     2.3120     0.0660 h4         1 7NF       0.183000
     19 OXT          3.5140    -1.5440    -0.0590 o          1 7NF      -0.801800
@<TRIPOS>BOND
     1     1     2 1   
     2     2     3 1   
     3     2    19 1   
     4     3     4 1   
     5     3    12 2   
     6     4     5 2   
     7     5     6 1   
     8     5    11 1   
     9     6     7 2   
    10     6     8 1   
    11     8     9 1   
    12     9    10 1   
    13     9    13 1   
    14     9    14 1   
    15    10    15 1   
    16    10    16 1   
    17    10    17 1   
    18    11    12 1   
    19    12    18 1   
@<TRIPOS>SUBSTRUCTURE
     1 7NF         1 TEMP              0 ****  ****    0 ROOT
