@<TRIPOS>MOLECULE
7NG
   65    68     1     0     0
SMALL
abcg2


@<TRIPOS>ATOM
      1 C13         -1.7820    -1.3670    -0.0730 ca         1 7NG       0.555300
      2 C17         -2.5430     2.1470     0.6740 c          1 7NG       0.632300
      3 C15         -0.0230     0.0070     0.6850 ca         1 7NG       0.046000
      4 C20         -3.4800     4.3540     0.2340 c3         1 7NG       0.096300
      5 C21          2.2290    -0.9900     0.8990 cp         1 7NG      -0.039000
      6 C22          3.0170    -0.0050     0.3110 ca         1 7NG      -0.051000
      7 C23          4.3630     0.1310     0.6390 ca         1 7NG      -0.150600
      8 C24          4.9230    -0.7190     1.5880 ca         1 7NG      -0.089000
      9 C11          0.2360    -2.3210     0.0610 ca         1 7NG       0.657900
     10 C27          5.1420     1.2260    -0.0260 c          1 7NG       0.615700
     11 C33          7.5490     3.1710    -0.0290 c3         1 7NG      -0.103433
     12 C1          -7.0940     1.0710     0.4230 ca         1 7NG      -0.159000
     13 C2          -7.7100     0.4530    -0.6490 ca         1 7NG       0.187000
     14 C3          -7.0150    -0.3470    -1.5350 ca         1 7NG      -0.159000
     15 C4          -5.6550    -0.5240    -1.3450 ca         1 7NG      -0.054000
     16 C5          -4.9960     0.0940    -0.2790 ca         1 7NG      -0.069800
     17 C6          -5.7350     0.8820     0.6060 ca         1 7NG      -0.054000
     18 C7          -3.5640    -0.1010    -0.0860 cc         1 7NG       0.100900
     19 C8          -2.5500     0.7080     0.3310 cd         1 7NG      -0.155400
     20 C10          0.7960    -1.0950     0.5490 cp         1 7NG      -0.183000
     21 N12         -1.0560    -2.4430    -0.2440 nb         1 7NG      -0.752000
     22 C14         -1.3770    -0.1190     0.3650 ca         1 7NG      -0.190800
     23 O16         -3.1020    -1.3600    -0.3400 os         1 7NG      -0.280400
     24 N18         -3.3740     2.9370    -0.0170 ns         1 7NG      -0.504900
     25 O19         -1.7780     2.5740     1.5310 o          1 7NG      -0.597100
     26 C25          4.1430    -1.6940     2.1930 ca         1 7NG      -0.120000
     27 C26          2.8080    -1.8350     1.8500 ca         1 7NG      -0.090000
     28 O28          4.5850     2.2630    -0.3630 o          1 7NG      -0.601100
     29 C29          8.7740     1.1230    -0.7370 c3         1 7NG      -0.103433
     30 C30          7.4410     1.8650    -0.8170 c3         1 7NG       0.139400
     31 N31          6.4450     0.9700    -0.2120 ns         1 7NG      -0.504900
     32 C32          7.1020     2.1440    -2.2820 c3         1 7NG      -0.103433
     33 N34          1.0120    -3.4140    -0.1080 nu         1 7NG      -0.925100
     34 C35          0.5260    -4.6350    -0.7160 c3         1 7NG       0.225800
     35 C36          1.6080    -5.6980    -0.6870 c3         1 7NG      -0.111100
     36 H41          0.3820     0.9390     1.0560 ha         1 7NG       0.150000
     37 H45         -3.7190     4.5550     1.2780 h1         1 7NG       0.041033
     38 H43         -2.5590     4.8830    -0.0160 h1         1 7NG       0.041033
     39 H44         -4.2810     4.7500    -0.3830 h1         1 7NG       0.041033
     40 H46          2.5770     0.6550    -0.4260 ha         1 7NG       0.139000
     41 H47          5.9580    -0.6140     1.8880 ha         1 7NG       0.114000
     42 H59          8.3710     3.7680    -0.4260 hc         1 7NG       0.044589
     43 H57          6.6410     3.7660    -0.0960 hc         1 7NG       0.044589
     44 H58          7.7570     2.9730     1.0240 hc         1 7NG       0.044589
     45 H37         -7.6660     1.6770     1.1130 ha         1 7NG       0.137500
     46 H38         -7.5230    -0.8200    -2.3650 ha         1 7NG       0.137500
     47 H39         -5.1050    -1.1380    -2.0460 ha         1 7NG       0.132500
     48 H40         -5.2550     1.3360     1.4620 ha         1 7NG       0.132500
     49 H42         -3.9120     2.5470    -0.7730 hn         1 7NG       0.321500
     50 H48          4.5760    -2.3390     2.9460 ha         1 7NG       0.117000
     51 H49          2.2050    -2.5890     2.3390 ha         1 7NG       0.125000
     52 H52          9.0510     0.9150     0.2990 hc         1 7NG       0.044589
     53 H50          8.7330     0.1750    -1.2790 hc         1 7NG       0.044589
     54 H51          9.5660     1.7240    -1.1820 hc         1 7NG       0.044589
     55 H53          6.7620     0.0340    -0.0160 hn         1 7NG       0.309500
     56 H56          7.8780     2.7670    -2.7310 hc         1 7NG       0.044589
     57 H55          7.0490     1.2150    -2.8510 hc         1 7NG       0.044589
     58 H54          6.1530     2.6670    -2.3830 hc         1 7NG       0.044589
     59 H60          2.0100    -3.2770    -0.1090 hn         1 7NG       0.495000
     60 H61         -0.3520    -4.9810    -0.1680 h1         1 7NG       0.055200
     61 H62          0.2010    -4.4570    -1.7460 h1         1 7NG       0.055200
     62 H65          1.2450    -6.6120    -1.1540 hc         1 7NG       0.042367
     63 H64          2.4950    -5.3770    -1.2360 hc         1 7NG       0.042367
     64 H63          1.9050    -5.9350     0.3340 hc         1 7NG       0.042367
     65 F9          -9.0260     0.6280    -0.8290 f          1 7NG      -0.173000
@<TRIPOS>BOND
     1     1    21 ar  
     2     1    22 ar  
     3     1    23 1   
     4     2    19 1   
     5     2    24 1   
     6     2    25 2   
     7     3    20 ar  
     8     3    22 ar  
     9     3    36 1   
    10     4    24 1   
    11     4    37 1   
    12     4    38 1   
    13     4    39 1   
    14     5     6 ar  
    15     5    20 1   
    16     5    27 ar  
    17     6     7 ar  
    18     6    40 1   
    19     7     8 ar  
    20     7    10 1   
    21     8    26 ar  
    22     8    41 1   
    23     9    20 ar  
    24     9    21 ar  
    25     9    33 1   
    26    10    28 2   
    27    10    31 1   
    28    11    30 1   
    29    11    42 1   
    30    11    43 1   
    31    11    44 1   
    32    12    13 ar  
    33    12    17 ar  
    34    12    45 1   
    35    13    14 ar  
    36    13    65 1   
    37    14    15 ar  
    38    14    46 1   
    39    15    16 ar  
    40    15    47 1   
    41    16    17 ar  
    42    16    18 1   
    43    17    48 1   
    44    18    19 2   
    45    18    23 1   
    46    19    22 1   
    47    24    49 1   
    48    26    27 ar  
    49    26    50 1   
    50    27    51 1   
    51    29    30 1   
    52    29    52 1   
    53    29    53 1   
    54    29    54 1   
    55    30    31 1   
    56    30    32 1   
    57    31    55 1   
    58    32    56 1   
    59    32    57 1   
    60    32    58 1   
    61    33    34 1   
    62    33    59 1   
    63    34    35 1   
    64    34    60 1   
    65    34    61 1   
    66    35    62 1   
    67    35    63 1   
    68    35    64 1   
@<TRIPOS>SUBSTRUCTURE
     1 7NG         1 TEMP              0 ****  ****    0 ROOT
