@<TRIPOS>MOLECULE
7NG
   65    68     1     0     0
SMALL
No Charge or Current Charge


@<TRIPOS>ATOM
      1 C13         -1.8860    -1.5350    -0.1410 ca         1 7NG       0.555300
      2 C17         -2.4800     2.0830     0.3940 c          1 7NG       0.632300
      3 C15         -0.0380    -0.1000     0.4520 ca         1 7NG       0.046000
      4 C20         -3.8600     4.1830     0.4250 c3         1 7NG       0.096300
      5 C21          2.2510    -1.1270     0.6900 cp         1 7NG      -0.039000
      6 C22          3.0400    -0.1580     0.0250 ca         1 7NG      -0.051000
      7 C23          4.4230    -0.0160     0.2850 ca         1 7NG      -0.150600
      8 C24          5.0180    -0.8700     1.2450 ca         1 7NG      -0.089000
      9 C11          0.1690    -2.4850     0.0470 ca         1 7NG       0.657900
     10 C27          5.2140     1.0380    -0.4670 c          1 7NG       0.615700
     11 C33          7.1810     3.5080    -0.4260 c3         1 7NG      -0.103433
     12 C1          -7.0940     0.8970     0.7530 ca         1 7NG      -0.159000
     13 C2          -7.6880     1.0170    -0.5130 ca         1 7NG       0.187000
     14 C3          -6.9490     0.7360    -1.6720 ca         1 7NG      -0.159000
     15 C4          -5.6050     0.3350    -1.5660 ca         1 7NG      -0.054000
     16 C5          -5.0000     0.2210    -0.3000 ca         1 7NG      -0.069800
     17 C6          -5.7500     0.4940     0.8610 ca         1 7NG      -0.054000
     18 C7          -3.6050    -0.1900    -0.1930 cc         1 7NG       0.100900
     19 C8          -2.5190     0.6080     0.1390 cd         1 7NG      -0.155400
     20 C10          0.7900    -1.2470     0.3960 cp         1 7NG      -0.183000
     21 N12         -1.1360    -2.6430    -0.2170 nb         1 7NG      -0.752000
     22 C14         -1.3940    -0.2910     0.1750 ca         1 7NG      -0.190800
     23 O16         -3.2430    -1.5180    -0.3830 os         1 7NG      -0.280400
     24 N18         -3.6730     2.7450     0.2270 ns         1 7NG      -0.504900
     25 O19         -1.4640     2.6820     0.7180 o          1 7NG      -0.597100
     26 C25          4.2460    -1.8290     1.9210 ca         1 7NG      -0.120000
     27 C26          2.8760    -1.9550     1.6500 ca         1 7NG      -0.090000
     28 O28          4.6850     1.7670    -1.2940 o          1 7NG      -0.601100
     29 C29          8.9080     1.7130    -0.0440 c3         1 7NG      -0.103433
     30 C30          7.5590     2.0360    -0.7270 c3         1 7NG       0.139400
     31 N31          6.5610     1.1180    -0.1590 ns         1 7NG      -0.504900
     32 C32          7.7010     1.8120    -2.2540 c3         1 7NG      -0.103433
     33 N34          0.9060    -3.6440    -0.0870 nu         1 7NG      -0.925100
     34 C35          0.4320    -4.9860    -0.4500 c3         1 7NG       0.225800
     35 C36          1.6080    -5.9740    -0.4650 c3         1 7NG      -0.111100
     36 H41          0.3660     0.8760     0.7110 ha         1 7NG       0.150000
     37 H45         -3.6010     4.4510     1.4570 h1         1 7NG       0.041033
     38 H43         -3.2160     4.7380    -0.2700 h1         1 7NG       0.041033
     39 H44         -4.9090     4.4450     0.2350 h1         1 7NG       0.041033
     40 H46          2.5620     0.4840    -0.7120 ha         1 7NG       0.139000
     41 H47          6.0760    -0.8050     1.4860 ha         1 7NG       0.114000
     42 H59          7.9750     4.1880    -0.7570 hc         1 7NG       0.044589
     43 H57          6.2600     3.8040    -0.9400 hc         1 7NG       0.044589
     44 H58          7.0330     3.6600     0.6500 hc         1 7NG       0.044589
     45 H37         -7.6740     1.1120     1.6460 ha         1 7NG       0.137500
     46 H38         -7.4170     0.8290    -2.6480 ha         1 7NG       0.137500
     47 H39         -5.0320     0.1160    -2.4660 ha         1 7NG       0.132500
     48 H40         -5.2910     0.3970     1.8430 ha         1 7NG       0.132500
     49 H42         -4.4690     2.1880    -0.0560 hn         1 7NG       0.321500
     50 H48          4.7120    -2.4740     2.6640 ha         1 7NG       0.117000
     51 H49          2.2900    -2.6900     2.1980 ha         1 7NG       0.125000
     52 H52          8.8420     1.8560     1.0420 hc         1 7NG       0.044589
     53 H50          9.2050     0.6740    -0.2320 hc         1 7NG       0.044589
     54 H51          9.7050     2.3650    -0.4220 hc         1 7NG       0.044589
     55 H53          6.8870     0.4650     0.5390 hn         1 7NG       0.309500
     56 H56          8.5160     2.4210    -2.6610 hc         1 7NG       0.044589
     57 H55          7.9220     0.7600    -2.4750 hc         1 7NG       0.044589
     58 H54          6.7860     2.0860    -2.7910 hc         1 7NG       0.044589
     59 H60          1.9070    -3.5100     0.0290 hn         1 7NG       0.495000
     60 H61         -0.3200    -5.3320     0.2730 h1         1 7NG       0.055200
     61 H62         -0.0380    -4.9680    -1.4440 h1         1 7NG       0.055200
     62 H65          1.2540    -6.9760    -0.7340 hc         1 7NG       0.042367
     63 H64          2.3630    -5.6700    -1.2000 hc         1 7NG       0.042367
     64 H63          2.0810    -6.0320     0.5220 hc         1 7NG       0.042367
     65 F9          -8.9780     1.4030    -0.6150 f          1 7NG      -0.173000
@<TRIPOS>BOND
     1     1    21 ar  
     2     1    22 ar  
     3     1    23 1   
     4     2    19 1   
     5     2    24 1   
     6     2    25 2   
     7     3    20 ar  
     8     3    22 ar  
     9     3    36 1   
    10     4    24 1   
    11     4    37 1   
    12     4    38 1   
    13     4    39 1   
    14     5     6 ar  
    15     5    20 1   
    16     5    27 ar  
    17     6     7 ar  
    18     6    40 1   
    19     7     8 ar  
    20     7    10 1   
    21     8    26 ar  
    22     8    41 1   
    23     9    20 ar  
    24     9    21 ar  
    25     9    33 1   
    26    10    28 2   
    27    10    31 1   
    28    11    30 1   
    29    11    42 1   
    30    11    43 1   
    31    11    44 1   
    32    12    13 ar  
    33    12    17 ar  
    34    12    45 1   
    35    13    14 ar  
    36    13    65 1   
    37    14    15 ar  
    38    14    46 1   
    39    15    16 ar  
    40    15    47 1   
    41    16    17 ar  
    42    16    18 1   
    43    17    48 1   
    44    18    19 2   
    45    18    23 1   
    46    19    22 1   
    47    24    49 1   
    48    26    27 ar  
    49    26    50 1   
    50    27    51 1   
    51    29    30 1   
    52    29    52 1   
    53    29    53 1   
    54    29    54 1   
    55    30    31 1   
    56    30    32 1   
    57    31    55 1   
    58    32    56 1   
    59    32    57 1   
    60    32    58 1   
    61    33    34 1   
    62    33    59 1   
    63    34    35 1   
    64    34    60 1   
    65    34    61 1   
    66    35    62 1   
    67    35    63 1   
    68    35    64 1   
@<TRIPOS>SUBSTRUCTURE
     1 7NG         1 TEMP              0 ****  ****    0 ROOT
