@<TRIPOS>MOLECULE
7NH
   45    48     1     0     0
SMALL
bcc


@<TRIPOS>ATOM
      1 N1          -6.7780     2.4630    -0.0330 nb         1 7NH      -0.695000
      2 C2          -7.3730     1.2590    -0.0590 ca         1 7NH       0.408200
      3 C3          -6.7080     0.0520     0.0020 ca         1 7NH      -0.265300
      4 C4          -5.3210     0.1250     0.0990 ca         1 7NH      -0.019200
      5 C5          -4.6680     1.3750     0.1190 ca         1 7NH      -0.231100
      6 C6          -5.4620     2.5210     0.0520 ca         1 7NH       0.459200
      7 N3          -4.3660    -0.8320     0.1850 na         1 7NH      -0.171400
      8 CN4         -3.2690     1.1160     0.2060 cc         1 7NH      -0.133200
      9 C8          -3.1170    -0.2460     0.2470 cd         1 7NH       0.000700
     10 C1          -1.9300    -1.0870     0.4060 ca         1 7NH      -0.075800
     11 C7          -2.0230    -2.2970     1.0970 ca         1 7NH      -0.090000
     12 C9          -0.9200    -3.1130     1.2790 ca         1 7NH      -0.165000
     13 C10          0.3040    -2.7270     0.7560 ca         1 7NH      -0.068000
     14 C11          0.4350    -1.5370     0.0490 cp         1 7NH      -0.133000
     15 C12         -0.6830    -0.7100    -0.1140 ca         1 7NH       0.176100
     16 O6          -0.6050     0.4650    -0.7620 oh         1 7NH      -0.489100
     17 C1B          1.7470    -1.1390    -0.5140 cp         1 7NH      -0.060000
     18 C2B          1.9280    -1.0110    -1.8890 ca         1 7NH      -0.123000
     19 C3B          3.1690    -0.6460    -2.3990 ca         1 7NH      -0.131000
     20 C4B          4.2320    -0.4020    -1.5450 ca         1 7NH      -0.101000
     21 C5B          4.0710    -0.5260    -0.1660 ca         1 7NH      -0.122300
     22 C6B          2.8280    -0.8940     0.3340 ca         1 7NH      -0.106000
     23 C51          5.2140    -0.2300     0.7750 c3         1 7NH       0.158300
     24 N52          5.5270     1.1770     0.8560 ns         1 7NH      -0.589900
     25 C53          6.4890     1.7660     0.0990 c          1 7NH       0.776100
     26 O53          7.2460     1.1320    -0.6300 o          1 7NH      -0.644100
     27 N54          6.5970     3.1150     0.2590 nt         1 7NH      -0.666000
     28 H2          -8.4550     1.2660    -0.1310 h4         1 7NH       0.014100
     29 H3          -7.2450    -0.8860    -0.0220 ha         1 7NH       0.139000
     30 H6          -5.0110     3.5080     0.0680 h4         1 7NH       0.018100
     31 HN3         -4.5360    -1.8220     0.1240 hn         1 7NH       0.299700
     32 HN4         -2.4850     1.8500     0.2640 ha         1 7NH       0.165000
     33 H1          -2.9710    -2.5950     1.5280 ha         1 7NH       0.131000
     34 H7          -1.0140    -4.0400     1.8270 ha         1 7NH       0.139000
     35 H4           1.1740    -3.3580     0.8860 ha         1 7NH       0.138000
     36 H8           0.3080     0.6590    -1.0090 ho         1 7NH       0.437000
     37 H2B          1.1110    -1.2230    -2.5680 ha         1 7NH       0.140000
     38 H3B          3.3040    -0.5590    -3.4690 ha         1 7NH       0.138000
     39 H4B          5.1960    -0.1170    -1.9490 ha         1 7NH       0.154000
     40 H6B          2.6900    -0.9850     1.4060 ha         1 7NH       0.134000
     41 H511         6.1090    -0.7650     0.4630 h1         1 7NH       0.068200
     42 H512         4.9640    -0.5840     1.7760 h1         1 7NH       0.068200
     43 H52          4.8760     1.7580     1.3590 hn         1 7NH       0.305500
     44 H541         7.1400     3.6070    -0.4300 hn         1 7NH       0.304000
     45 H542         5.8370     3.6440     0.6550 hn         1 7NH       0.304000
@<TRIPOS>BOND
     1     1     2 ar  
     2     1     6 ar  
     3     2     3 ar  
     4     2    28 1   
     5     3     4 ar  
     6     3    29 1   
     7     4     5 ar  
     8     4     7 1   
     9     5     6 ar  
    10     5     8 1   
    11     6    30 1   
    12     7     9 1   
    13     7    31 1   
    14     8     9 2   
    15     8    32 1   
    16     9    10 1   
    17    10    11 ar  
    18    10    15 ar  
    19    11    12 ar  
    20    11    33 1   
    21    12    13 ar  
    22    12    34 1   
    23    13    14 ar  
    24    13    35 1   
    25    14    15 ar  
    26    14    17 1   
    27    15    16 1   
    28    16    36 1   
    29    17    18 ar  
    30    17    22 ar  
    31    18    19 ar  
    32    18    37 1   
    33    19    20 ar  
    34    19    38 1   
    35    20    21 ar  
    36    20    39 1   
    37    21    22 ar  
    38    21    23 1   
    39    22    40 1   
    40    23    24 1   
    41    23    41 1   
    42    23    42 1   
    43    24    25 1   
    44    24    43 1   
    45    25    26 2   
    46    25    27 1   
    47    27    44 1   
    48    27    45 1   
@<TRIPOS>SUBSTRUCTURE
     1 7NH         1 TEMP              0 ****  ****    0 ROOT
