@<TRIPOS>MOLECULE
7NH
   45    48     1     0     0
SMALL
No Charge or Current Charge


@<TRIPOS>ATOM
      1 N1          -6.9560     2.3570    -0.5260 nb         1 7NH      -0.695000
      2 C2          -7.4940     1.3860     0.2640 ca         1 7NH       0.342900
      3 C3          -6.7520     0.2960     0.7700 ca         1 7NH      -0.182000
      4 C4          -5.3970     0.2320     0.4280 ca         1 7NH      -0.019200
      5 C5          -4.8570     1.1960    -0.3570 ca         1 7NH      -0.165800
      6 C6          -5.6350     2.2630    -0.8370 ca         1 7NH       0.393900
      7 N3          -4.4500    -0.7110     0.7790 na         1 7NH      -0.221700
      8 CN4         -3.4740     0.8670    -0.5330 cc         1 7NH      -0.183200
      9 C8          -3.2260    -0.3160     0.1710 cd         1 7NH       0.000700
     10 C1          -1.9500    -1.0810     0.3170 ca         1 7NH      -0.075800
     11 C7          -1.9820    -2.2900     1.0560 ca         1 7NH      -0.072000
     12 C9          -0.8270    -3.0620     1.2430 ca         1 7NH      -0.147000
     13 C10          0.3900    -2.6530     0.6910 ca         1 7NH      -0.050000
     14 C11          0.4740    -1.4630    -0.0620 cp         1 7NH      -0.133000
     15 C12         -0.6980    -0.6750    -0.2350 ca         1 7NH       0.176100
     16 O6          -0.5710     0.5020    -0.9100 oh         1 7NH      -0.528100
     17 C1B          1.7910    -1.0630    -0.6440 cp         1 7NH      -0.060000
     18 C2B          1.9390    -0.8270    -2.0330 ca         1 7NH      -0.105000
     19 C3B          3.1820    -0.4550    -2.5710 ca         1 7NH      -0.113000
     20 C4B          4.3000    -0.3190    -1.7320 ca         1 7NH      -0.083000
     21 C5B          4.1820    -0.5620    -0.3500 ca         1 7NH      -0.122300
     22 C6B          2.9320    -0.9330     0.1830 ca         1 7NH      -0.088000
     23 C51          5.3950    -0.4190     0.5580 c3         1 7NH       0.158300
     24 N52          5.5870     0.9710     0.9740 ns         1 7NH      -0.522900
     25 C53          6.4860     1.8290     0.4120 c          1 7NH       0.642100
     26 O53          7.2480     1.5390    -0.4890 o          1 7NH      -0.644100
     27 N54          6.4610     3.0530     0.9540 nt         1 7NH      -0.599000
     28 H2          -8.5530     1.4870     0.4980 h4         1 7NH       0.014100
     29 H3          -7.2210    -0.4570     1.3970 ha         1 7NH       0.121000
     30 H6          -5.2100     3.0420    -1.4690 h4         1 7NH       0.018100
     31 HN3         -4.6010    -1.5260     1.3620 hn         1 7NH       0.350000
     32 HN4         -2.7640     1.4390    -1.1200 ha         1 7NH       0.215000
     33 H1          -2.9060    -2.6500     1.4990 ha         1 7NH       0.113000
     34 H7          -0.8790    -3.9850     1.8160 ha         1 7NH       0.121000
     35 H4           1.2770    -3.2670     0.8360 ha         1 7NH       0.120000
     36 H8           0.3810     0.6090    -1.1210 ho         1 7NH       0.476000
     37 H2B          1.0860    -0.9480    -2.6980 ha         1 7NH       0.122000
     38 H3B          3.2810    -0.2760    -3.6400 ha         1 7NH       0.120000
     39 H4B          5.2600    -0.0280    -2.1550 ha         1 7NH       0.136000
     40 H6B          2.8370    -1.1150     1.2510 ha         1 7NH       0.116000
     41 H511         6.2920    -0.7830     0.0400 h1         1 7NH       0.068200
     42 H512         5.2610    -1.0380     1.4550 h1         1 7NH       0.068200
     43 H52          5.0020     1.3340     1.7140 hn         1 7NH       0.305500
     44 H541         7.0930     3.7560     0.6020 hn         1 7NH       0.304000
     45 H542         5.8200     3.2700     1.7010 hn         1 7NH       0.304000
@<TRIPOS>BOND
     1     1     2 ar  
     2     1     6 ar  
     3     2     3 ar  
     4     2    28 1   
     5     3     4 ar  
     6     3    29 1   
     7     4     5 ar  
     8     4     7 1   
     9     5     6 ar  
    10     5     8 1   
    11     6    30 1   
    12     7     9 1   
    13     7    31 1   
    14     8     9 2   
    15     8    32 1   
    16     9    10 1   
    17    10    11 ar  
    18    10    15 ar  
    19    11    12 ar  
    20    11    33 1   
    21    12    13 ar  
    22    12    34 1   
    23    13    14 ar  
    24    13    35 1   
    25    14    15 ar  
    26    14    17 1   
    27    15    16 1   
    28    16    36 1   
    29    17    18 ar  
    30    17    22 ar  
    31    18    19 ar  
    32    18    37 1   
    33    19    20 ar  
    34    19    38 1   
    35    20    21 ar  
    36    20    39 1   
    37    21    22 ar  
    38    21    23 1   
    39    22    40 1   
    40    23    24 1   
    41    23    41 1   
    42    23    42 1   
    43    24    25 1   
    44    24    43 1   
    45    25    26 2   
    46    25    27 1   
    47    27    44 1   
    48    27    45 1   
@<TRIPOS>SUBSTRUCTURE
     1 7NH         1 TEMP              0 ****  ****    0 ROOT
