@<TRIPOS>MOLECULE
7NI
   17    18     1     0     0
SMALL
abcg2


@<TRIPOS>ATOM
      1 N1           0.8190     1.6010    -0.0070 na         1 7NI      -0.032400
      2 N2           2.1500     1.7410    -0.0130 nc         1 7NI      -0.499100
      3 C3           2.6600     0.5410    -0.0020 cd         1 7NI       0.365800
      4 C4           1.5990    -1.8350     0.0270 ca         1 7NI       0.024000
      5 C5           0.3730    -2.4700     0.0370 ca         1 7NI      -0.174000
      6 C6          -0.8160    -1.7350     0.0330 ca         1 7NI       0.011000
      7 C7          -0.7980    -0.3540     0.0180 ca         1 7NI      -0.214200
      8 C8           0.4400     0.3100     0.0080 ca         1 7NI       0.013800
      9 C9           1.6320    -0.4420     0.0120 ca         1 7NI      -0.255900
     10 N10         -2.0260     0.3870     0.0150 no         1 7NI       0.710200
     11 O11         -3.0750    -0.2130     0.0220 o          1 7NI      -0.412000
     12 O12         -1.9420     1.5980     0.0040 o          1 7NI      -0.412000
     13 H11          0.2300     2.4170    -0.0130 hn         1 7NI       0.406000
     14 H31          3.7290     0.3890    -0.0040 h4         1 7NI       0.057800
     15 H41          2.5160    -2.4090     0.0300 ha         1 7NI       0.129000
     16 H51          0.3200    -3.5490     0.0490 ha         1 7NI       0.131000
     17 H61         -1.7600    -2.2610     0.0430 ha         1 7NI       0.150000
@<TRIPOS>BOND
     1     1     2 1   
     2     1     8 1   
     3     1    13 1   
     4     2     3 2   
     5     3     9 1   
     6     3    14 1   
     7     4     5 ar  
     8     4     9 ar  
     9     4    15 1   
    10     5     6 ar  
    11     5    16 1   
    12     6     7 ar  
    13     6    17 1   
    14     7     8 ar  
    15     7    10 1   
    16     8     9 ar  
    17    10    11 1   
    18    10    12 1   
@<TRIPOS>SUBSTRUCTURE
     1 7NI         1 TEMP              0 ****  ****    0 ROOT
