@<TRIPOS>MOLECULE
7NI
   17    18     1     0     0
SMALL
No Charge or Current Charge


@<TRIPOS>ATOM
      1 N1           0.8200     1.6230    -0.0070 na         1 7NI      -0.032400
      2 N2           2.2210     1.7710    -0.0130 nc         1 7NI      -0.499100
      3 C3           2.6960     0.5150    -0.0010 cd         1 7NI       0.365800
      4 C4           1.6310    -1.8410     0.0270 ca         1 7NI       0.024000
      5 C5           0.3860    -2.4990     0.0370 ca         1 7NI      -0.174000
      6 C6          -0.8220    -1.7590     0.0340 ca         1 7NI       0.011000
      7 C7          -0.8030    -0.3380     0.0190 ca         1 7NI      -0.214200
      8 C8           0.4660     0.2830     0.0080 ca         1 7NI       0.013800
      9 C9           1.6160    -0.4420     0.0120 ca         1 7NI      -0.255900
     10 N10         -2.0850     0.4390     0.0150 no         1 7NI       0.710200
     11 O11         -3.1490    -0.1940     0.0250 o          1 7NI      -0.412000
     12 O12         -2.0270     1.6760     0.0010 o          1 7NI      -0.412000
     13 H11          0.1810     2.4180    -0.0130 hn         1 7NI       0.406000
     14 H31          3.7670     0.3520    -0.0030 h4         1 7NI       0.057800
     15 H41          2.5660    -2.4000     0.0290 ha         1 7NI       0.129000
     16 H51          0.3520    -3.5860     0.0490 ha         1 7NI       0.131000
     17 H61         -1.7670    -2.3020     0.0420 ha         1 7NI       0.150000
@<TRIPOS>BOND
     1     1     2 1   
     2     1     8 1   
     3     1    13 1   
     4     2     3 2   
     5     3     9 1   
     6     3    14 1   
     7     4     5 ar  
     8     4     9 ar  
     9     4    15 1   
    10     5     6 ar  
    11     5    16 1   
    12     6     7 ar  
    13     6    17 1   
    14     7     8 ar  
    15     7    10 1   
    16     8     9 ar  
    17    10    11 1   
    18    10    12 1   
@<TRIPOS>SUBSTRUCTURE
     1 7NI         1 TEMP              0 ****  ****    0 ROOT
