@<TRIPOS>MOLECULE
7NL
   73    80     1     0     0
SMALL
abcg2


@<TRIPOS>ATOM
      1 C1           2.5210     3.0990   -24.8630 ca         1 7NL      -0.262000
      2 C2           1.7550     4.2420   -24.5140 ca         1 7NL       0.081000
      3 C4           3.6050     5.3390   -23.8620 ca         1 7NL       0.419300
      4 C6           3.9190     3.1500   -24.4850 ca         1 7NL       0.466900
      5 C7           1.8930     2.1020   -25.6310 ca         1 7NL       0.386900
      6 C10          0.3770     4.1740   -24.8080 ca         1 7NL       0.126000
      7 C13          6.7820     1.4620   -23.2700 c5         1 7NL       0.128000
      8 C14          6.2000     2.2520   -24.4470 c6         1 7NL       0.185800
      9 C16          4.2850     0.6940   -24.3920 c6         1 7NL       0.185800
     10 C17          5.0170     0.0160   -23.2220 c5         1 7NL       0.128000
     11 C19          6.0660     1.8060   -21.9520 c5         1 7NL      -0.069900
     12 C20          4.8590     0.8300   -21.9260 c5         1 7NL      -0.069900
     13 C21         -1.6270     3.0340   -25.7790 cp         1 7NL      -0.099500
     14 C22          5.5500     6.5720   -23.2080 c3         1 7NL       0.198600
     15 C23          5.8830     7.9880   -22.7570 c5         1 7NL       0.173200
     16 C25          4.4100     9.8170   -23.2350 c5         1 7NL       0.141800
     17 C26          4.5960     9.7790   -21.7270 c5         1 7NL       0.155300
     18 C27          5.1100     8.3760   -21.4710 c5         1 7NL      -0.113400
     19 C28          6.6680     9.7020   -24.2730 c5         1 7NL       0.160800
     20 C29          7.4160     8.1270   -22.6580 c5         1 7NL      -0.088400
     21 C30          7.8140     8.7330   -24.0060 c5         1 7NL      -0.086400
     22 C31         -2.6160     3.0610   -24.7490 ca         1 7NL      -0.040000
     23 C32         -3.9920     3.0050   -25.1320 ca         1 7NL      -0.001000
     24 C33         -4.3410     2.9170   -26.4990 ca         1 7NL      -0.193000
     25 C34         -3.3630     2.8660   -27.4600 ca         1 7NL       0.134100
     26 C35         -2.0020     2.9210   -27.0960 ca         1 7NL      -0.086000
     27 C36         -2.2990     3.1010   -23.3690 ca         1 7NL      -0.082000
     28 C37         -3.2840     3.1150   -22.4150 ca         1 7NL      -0.115000
     29 C38         -4.6430     3.0870   -22.7950 ca         1 7NL      -0.097000
     30 C39         -4.9860     3.0300   -24.1210 ca         1 7NL      -0.110000
     31 C9          -0.1780     3.1050   -25.4690 cp         1 7NL       0.380500
     32 F12         -0.3910     5.2310   -24.4700 f          1 7NL      -0.144000
     33 N15          4.7400     2.0840   -24.5260 nh         1 7NL      -0.779300
     34 N18          6.4760     0.0260   -23.4090 n7         1 7NL      -0.831400
     35 N24          5.4730     8.9820   -23.7970 n3         1 7NL      -0.710600
     36 N3           2.2860     5.3600   -23.9760 nb         1 7NL      -0.217000
     37 N5           4.4300     4.3170   -24.0830 nb         1 7NL      -0.365000
     38 N8           0.6090     2.0970   -25.9270 nb         1 7NL      -0.668000
     39 O11          4.1320     6.4930   -23.4450 os         1 7NL      -0.430300
     40 O34         -3.6270     2.7710   -28.7950 oh         1 7NL      -0.536100
     41 F262         5.5950    10.7260   -21.3530 f          1 7NL      -0.285000
     42 H1           2.4730     1.2900   -26.0490 h4         1 7NL       0.022100
     43 H2           7.8590     1.6290   -23.2330 h1         1 7NL       0.082200
     44 H3           6.6290     1.8720   -25.3800 h1         1 7NL       0.067200
     45 H4           6.4220     3.3090   -24.3620 h1         1 7NL       0.067200
     46 H5           3.2200     0.6810   -24.1870 h1         1 7NL       0.067200
     47 H6           4.4710     0.1450   -25.3200 h1         1 7NL       0.067200
     48 H7           4.6420    -1.0050   -23.1360 h1         1 7NL       0.082200
     49 H8           6.7300     1.6270   -21.1080 hc         1 7NL       0.055200
     50 H9           5.7590     2.8510   -21.9250 hc         1 7NL       0.055200
     51 H10          3.9020     1.3510   -21.8940 hc         1 7NL       0.055200
     52 H11          4.9090     0.1690   -21.0610 hc         1 7NL       0.055200
     53 H12          5.8230     5.8470   -22.4380 h1         1 7NL       0.051700
     54 H13          6.0840     6.3290   -24.1260 h1         1 7NL       0.051700
     55 H14          4.4480    10.8320   -23.6320 h1         1 7NL       0.072200
     56 H15          3.4260     9.4000   -23.4670 h1         1 7NL       0.072200
     57 H16          3.7060    10.0450   -21.1570 h1         1 7NL       0.072700
     58 H17          4.2520     7.7200   -21.3250 hc         1 7NL       0.070200
     59 H18          5.7310     8.3250   -20.5770 hc         1 7NL       0.070200
     60 H19          6.5670     9.9590   -25.3300 h1         1 7NL       0.047700
     61 H20          6.8280    10.6330   -23.7150 h1         1 7NL       0.047700
     62 H21          7.9060     7.1760   -22.4450 hc         1 7NL       0.055200
     63 H22          7.6660     8.8180   -21.8510 hc         1 7NL       0.055200
     64 H23          7.8490     7.9620   -24.7790 hc         1 7NL       0.052200
     65 H24          8.7830     9.2320   -23.9800 hc         1 7NL       0.052200
     66 H25         -5.3880     2.8810   -26.7810 ha         1 7NL       0.115000
     67 H26         -1.2520     2.8880   -27.8760 ha         1 7NL       0.139000
     68 H27         -1.2610     3.1130   -23.0630 ha         1 7NL       0.115000
     69 H28         -3.0200     3.1430   -21.3650 ha         1 7NL       0.114000
     70 H29         -5.4140     3.1020   -22.0350 ha         1 7NL       0.112000
     71 H30         -6.0270     2.9950   -24.4190 ha         1 7NL       0.111000
     72 H31          6.7330    -0.3180   -24.3300 hn         1 7NL       0.408000
     73 H34         -4.5830     2.7520   -28.9420 ho         1 7NL       0.463000
@<TRIPOS>BOND
     1     1     2 ar  
     2     1     4 ar  
     3     1     5 ar  
     4     2     6 ar  
     5     2    36 ar  
     6     3    36 ar  
     7     3    37 ar  
     8     3    39 1   
     9     4    33 1   
    10     4    37 ar  
    11     5    38 ar  
    12     5    42 1   
    13     6    31 ar  
    14     6    32 1   
    15     7     8 1   
    16     7    11 1   
    17     7    34 1   
    18     7    43 1   
    19     8    33 1   
    20     8    44 1   
    21     8    45 1   
    22     9    10 1   
    23     9    33 1   
    24     9    46 1   
    25     9    47 1   
    26    10    12 1   
    27    10    34 1   
    28    10    48 1   
    29    11    12 1   
    30    11    49 1   
    31    11    50 1   
    32    12    51 1   
    33    12    52 1   
    34    13    22 ar  
    35    13    26 ar  
    36    13    31 1   
    37    14    15 1   
    38    14    39 1   
    39    14    53 1   
    40    14    54 1   
    41    15    18 1   
    42    15    20 1   
    43    15    35 1   
    44    16    17 1   
    45    16    35 1   
    46    16    55 1   
    47    16    56 1   
    48    17    18 1   
    49    17    41 1   
    50    17    57 1   
    51    18    58 1   
    52    18    59 1   
    53    19    21 1   
    54    19    35 1   
    55    19    60 1   
    56    19    61 1   
    57    20    21 1   
    58    20    62 1   
    59    20    63 1   
    60    21    64 1   
    61    21    65 1   
    62    22    23 ar  
    63    22    27 ar  
    64    23    24 ar  
    65    23    30 ar  
    66    24    25 ar  
    67    24    66 1   
    68    25    26 ar  
    69    25    40 1   
    70    26    67 1   
    71    27    28 ar  
    72    27    68 1   
    73    28    29 ar  
    74    28    69 1   
    75    29    30 ar  
    76    29    70 1   
    77    30    71 1   
    78    31    38 ar  
    79    34    72 1   
    80    40    73 1   
@<TRIPOS>SUBSTRUCTURE
     1 7NL         1 TEMP              0 ****  ****    0 ROOT
