@<TRIPOS>MOLECULE
7NL
   73    80     1     0     0
SMALL
No Charge or Current Charge


@<TRIPOS>ATOM
      1 C1           2.2730     2.9880   -24.8280 ca         1 7NL      -0.262000
      2 C2           1.5340     4.1750   -24.6560 ca         1 7NL       0.081000
      3 C4           3.4570     5.2270   -23.9140 ca         1 7NL       0.419300
      4 C6           3.6380     3.0120   -24.5040 ca         1 7NL       0.466900
      5 C7           1.6400     1.8410   -25.3360 ca         1 7NL       0.386900
      6 C10          0.1650     4.1440   -24.9840 ca         1 7NL       0.126000
      7 C13          6.9840     1.5210   -24.1800 c5         1 7NL       0.128000
      8 C14          5.8500     1.9700   -25.1740 c6         1 7NL       0.185800
      9 C16          4.2630     0.7410   -23.6420 c6         1 7NL       0.185800
     10 C17          5.5330     0.4260   -22.7710 c5         1 7NL       0.128000
     11 C19          7.0540     2.3550   -22.8670 c5         1 7NL      -0.069900
     12 C20          6.0290     1.6390   -21.9240 c5         1 7NL      -0.069900
     13 C21         -1.8540     2.8410   -25.8510 cp         1 7NL      -0.099500
     14 C22          5.4240     6.4190   -23.0420 c3         1 7NL       0.198600
     15 C23          5.8000     7.8550   -22.5470 c5         1 7NL       0.173200
     16 C25          4.6350     9.8940   -23.1280 c5         1 7NL       0.141800
     17 C26          4.7260     9.8620   -21.5720 c5         1 7NL       0.155300
     18 C27          4.9400     8.3470   -21.3210 c5         1 7NL      -0.113400
     19 C28          6.9930     9.6070   -23.7390 c5         1 7NL       0.160800
     20 C29          7.3110     7.9500   -22.1210 c5         1 7NL      -0.088400
     21 C30          7.9680     8.4540   -23.4270 c5         1 7NL      -0.086400
     22 C31         -2.9240     3.0570   -24.9300 ca         1 7NL      -0.040000
     23 C32         -4.2680     2.9890   -25.3780 ca         1 7NL      -0.001000
     24 C33         -4.5540     2.6960   -26.7240 ca         1 7NL      -0.193000
     25 C34         -3.5110     2.4600   -27.6270 ca         1 7NL       0.134100
     26 C35         -2.1800     2.5290   -27.1950 ca         1 7NL      -0.086000
     27 C36         -2.6810     3.3200   -23.5610 ca         1 7NL      -0.082000
     28 C37         -3.7470     3.5340   -22.6710 ca         1 7NL      -0.115000
     29 C38         -5.0710     3.4830   -23.1300 ca         1 7NL      -0.097000
     30 C39         -5.3300     3.2070   -24.4810 ca         1 7NL      -0.110000
     31 C9          -0.4120     2.9350   -25.4590 cp         1 7NL       0.380500
     32 F12         -0.5860     5.2680   -24.8600 f          1 7NL      -0.144000
     33 N15          4.4630     1.8760   -24.6010 nh         1 7NL      -0.779300
     34 N18          6.7010     0.1620   -23.6520 n7         1 7NL      -0.831400
     35 N24          5.6720     8.9220   -23.6020 n3         1 7NL      -0.710600
     36 N3           2.1400     5.2900   -24.1970 nb         1 7NL      -0.217000
     37 N5           4.2250     4.1290   -24.0510 nb         1 7NL      -0.365000
     38 N8           0.3270     1.8160   -25.6520 nb         1 7NL      -0.668000
     39 O11          4.0330     6.3840   -23.4410 os         1 7NL      -0.430300
     40 O34         -3.7880     2.1680   -28.9300 oh         1 7NL      -0.536100
     41 F262         5.7820    10.6290   -21.0650 f          1 7NL      -0.285000
     42 H1           2.1830     0.9140   -25.5110 h4         1 7NL       0.022100
     43 H2           7.9400     1.5560   -24.7240 h1         1 7NL       0.082200
     44 H3           5.9070     1.3450   -26.0770 h1         1 7NL       0.067200
     45 H4           6.0650     2.9950   -25.5100 h1         1 7NL       0.067200
     46 H5           3.4250     0.9620   -22.9640 h1         1 7NL       0.067200
     47 H6           3.9770    -0.1650   -24.1980 h1         1 7NL       0.067200
     48 H7           5.2980    -0.4390   -22.1330 h1         1 7NL       0.082200
     49 H8           8.0620     2.3210   -22.4380 hc         1 7NL       0.055200
     50 H9           6.8130     3.4110   -23.0300 hc         1 7NL       0.055200
     51 H10          5.2060     2.2980   -21.6250 hc         1 7NL       0.055200
     52 H11          6.5190     1.3010   -21.0040 hc         1 7NL       0.055200
     53 H12          5.6080     5.7050   -22.2290 h1         1 7NL       0.051700
     54 H13          6.0740     6.1520   -23.8860 h1         1 7NL       0.051700
     55 H14          4.7750    10.9070   -23.5320 h1         1 7NL       0.072200
     56 H15          3.6360     9.5600   -23.4410 h1         1 7NL       0.072200
     57 H16          3.8020    10.2290   -21.1040 h1         1 7NL       0.072700
     58 H17          3.9670     7.8440   -21.3000 hc         1 7NL       0.070200
     59 H18          5.4030     8.1410   -20.3500 hc         1 7NL       0.070200
     60 H19          7.1420    10.0120   -24.7490 h1         1 7NL       0.047700
     61 H20          7.1350    10.4340   -23.0290 h1         1 7NL       0.047700
     62 H21          7.7190     6.9850   -21.7970 hc         1 7NL       0.055200
     63 H22          7.4890     8.6560   -21.3020 hc         1 7NL       0.055200
     64 H23          7.9760     7.6940   -24.2180 hc         1 7NL       0.052200
     65 H24          8.9960     8.8020   -23.2800 hc         1 7NL       0.052200
     66 H25         -5.5880     2.6450   -27.0580 ha         1 7NL       0.115000
     67 H26         -1.3830     2.3520   -27.9130 ha         1 7NL       0.139000
     68 H27         -1.6690     3.3520   -23.1660 ha         1 7NL       0.115000
     69 H28         -3.5440     3.7370   -21.6210 ha         1 7NL       0.114000
     70 H29         -5.8950     3.6480   -22.4390 ha         1 7NL       0.112000
     71 H30         -6.3600     3.1590   -24.8280 ha         1 7NL       0.111000
     72 H31          6.4250    -0.4620   -24.4200 hn         1 7NL       0.408000
     73 H34         -4.7620     2.1640   -29.0470 ho         1 7NL       0.463000
@<TRIPOS>BOND
     1     1     2 ar  
     2     1     4 ar  
     3     1     5 ar  
     4     2     6 ar  
     5     2    36 ar  
     6     3    36 ar  
     7     3    37 ar  
     8     3    39 1   
     9     4    33 1   
    10     4    37 ar  
    11     5    38 ar  
    12     5    42 1   
    13     6    31 ar  
    14     6    32 1   
    15     7     8 1   
    16     7    11 1   
    17     7    34 1   
    18     7    43 1   
    19     8    33 1   
    20     8    44 1   
    21     8    45 1   
    22     9    10 1   
    23     9    33 1   
    24     9    46 1   
    25     9    47 1   
    26    10    12 1   
    27    10    34 1   
    28    10    48 1   
    29    11    12 1   
    30    11    49 1   
    31    11    50 1   
    32    12    51 1   
    33    12    52 1   
    34    13    22 ar  
    35    13    26 ar  
    36    13    31 1   
    37    14    15 1   
    38    14    39 1   
    39    14    53 1   
    40    14    54 1   
    41    15    18 1   
    42    15    20 1   
    43    15    35 1   
    44    16    17 1   
    45    16    35 1   
    46    16    55 1   
    47    16    56 1   
    48    17    18 1   
    49    17    41 1   
    50    17    57 1   
    51    18    58 1   
    52    18    59 1   
    53    19    21 1   
    54    19    35 1   
    55    19    60 1   
    56    19    61 1   
    57    20    21 1   
    58    20    62 1   
    59    20    63 1   
    60    21    64 1   
    61    21    65 1   
    62    22    23 ar  
    63    22    27 ar  
    64    23    24 ar  
    65    23    30 ar  
    66    24    25 ar  
    67    24    66 1   
    68    25    26 ar  
    69    25    40 1   
    70    26    67 1   
    71    27    28 ar  
    72    27    68 1   
    73    28    29 ar  
    74    28    69 1   
    75    29    30 ar  
    76    29    70 1   
    77    30    71 1   
    78    31    38 ar  
    79    34    72 1   
    80    40    73 1   
@<TRIPOS>SUBSTRUCTURE
     1 7NL         1 TEMP              0 ****  ****    0 ROOT
