@<TRIPOS>MOLECULE
7NP
   28    29     1     0     0
SMALL
bcc


@<TRIPOS>ATOM
      1 OAM          1.5220    -2.1250    -0.0040 o          1 7NP      -0.521100
      2 CAJ          1.5020    -0.9160     0.1030 c          1 7NP       0.584700
      3 CAB          0.2150    -0.1650     0.0610 ca         1 7NP      -0.138600
      4 CAI          2.7640    -0.1080     0.3070 c6         1 7NP      -0.158700
      5 CAN          4.0200    -0.8810    -0.0610 c3         1 7NP      -0.077100
      6 CAH          2.6530     1.2280    -0.4240 c6         1 7NP      -0.067400
      7 CAG          1.4740     2.0290     0.1010 c6         1 7NP      -0.031100
      8 CAC          0.2000     1.2350     0.0600 ca         1 7NP      -0.074300
      9 CAD         -1.0360     1.8690     0.0210 ca         1 7NP      -0.107000
     10 CAE         -2.2260     1.1570    -0.0150 ca         1 7NP      -0.187000
     11 CAF         -2.2000    -0.2380    -0.0170 ca         1 7NP       0.124100
     12 CAA         -0.9730    -0.8880     0.0180 ca         1 7NP      -0.108000
     13 OAK         -3.2970    -1.0200    -0.0560 os         1 7NP      -0.314900
     14 CAL         -4.5650    -0.3970    -0.1110 c3         1 7NP       0.125700
     15 H1           2.7920     0.1140     1.3850 hc         1 7NP       0.069700
     16 H2           4.0190    -1.1610    -1.1150 hc         1 7NP       0.041700
     17 H3           4.8990    -0.2620     0.1180 hc         1 7NP       0.041700
     18 H4           4.1290    -1.7890     0.5300 hc         1 7NP       0.041700
     19 H5           3.5770     1.7940    -0.2920 hc         1 7NP       0.049700
     20 H6           2.5410     1.0530    -1.4990 hc         1 7NP       0.049700
     21 H7           1.6810     2.3300     1.1340 hc         1 7NP       0.052200
     22 H8           1.3510     2.9540    -0.4670 hc         1 7NP       0.052200
     23 H9          -1.0790     2.9510     0.0110 ha         1 7NP       0.130000
     24 H10         -3.1580     1.7060    -0.0470 ha         1 7NP       0.136000
     25 H11         -0.9470    -1.9710     0.0160 ha         1 7NP       0.165000
     26 H12         -4.6750     0.2280    -1.0010 h1         1 7NP       0.041033
     27 H13         -5.3000    -1.1960    -0.1520 h1         1 7NP       0.041033
     28 H14         -4.7590     0.2140     0.7750 h1         1 7NP       0.041033
@<TRIPOS>BOND
     1     1     2 2   
     2     2     3 1   
     3     2     4 1   
     4     3     8 ar  
     5     3    12 ar  
     6     4     5 1   
     7     4     6 1   
     8     4    15 1   
     9     5    16 1   
    10     5    17 1   
    11     5    18 1   
    12     6     7 1   
    13     6    19 1   
    14     6    20 1   
    15     7     8 1   
    16     7    21 1   
    17     7    22 1   
    18     8     9 ar  
    19     9    10 ar  
    20     9    23 1   
    21    10    11 ar  
    22    10    24 1   
    23    11    12 ar  
    24    11    13 1   
    25    12    25 1   
    26    13    14 1   
    27    14    26 1   
    28    14    27 1   
    29    14    28 1   
@<TRIPOS>SUBSTRUCTURE
     1 7NP         1 TEMP              0 ****  ****    0 ROOT
