@<TRIPOS>MOLECULE
7NP
   28    29     1     0     0
SMALL
No Charge or Current Charge


@<TRIPOS>ATOM
      1 OAM          1.5750    -2.1750     0.0630 o          1 7NP      -0.521100
      2 CAJ          1.5350    -0.9510     0.1480 c          1 7NP       0.584700
      3 CAB          0.2220    -0.1980     0.0830 ca         1 7NP      -0.138600
      4 CAI          2.8260    -0.1110     0.3150 c6         1 7NP      -0.158700
      5 CAN          4.1090    -0.8920    -0.1010 c3         1 7NP      -0.077100
      6 CAH          2.7090     1.2580    -0.3950 c6         1 7NP      -0.067400
      7 CAG          1.4790     2.0400     0.1100 c6         1 7NP      -0.031100
      8 CAC          0.1890     1.2180     0.0630 ca         1 7NP      -0.074300
      9 CAD         -1.0460     1.8890     0.0120 ca         1 7NP      -0.089000
     10 CAE         -2.2520     1.1700    -0.0310 ca         1 7NP      -0.169000
     11 CAF         -2.2300    -0.2390    -0.0210 ca         1 7NP       0.124100
     12 CAA         -0.9980    -0.9110     0.0360 ca         1 7NP      -0.090000
     13 OAK         -3.3800    -1.0010    -0.0620 os         1 7NP      -0.338100
     14 CAL         -4.6910    -0.4100    -0.1220 c3         1 7NP       0.148900
     15 H1           2.8970     0.1100     1.3890 hc         1 7NP       0.069700
     16 H2           4.0760    -1.1760    -1.1600 hc         1 7NP       0.041700
     17 H3           5.0090    -0.2850     0.0540 hc         1 7NP       0.041700
     18 H4           4.2290    -1.8090     0.4890 hc         1 7NP       0.041700
     19 H5           3.6170     1.8540    -0.2300 hc         1 7NP       0.049700
     20 H6           2.6270     1.1060    -1.4810 hc         1 7NP       0.049700
     21 H7           1.6540     2.3710     1.1420 hc         1 7NP       0.052200
     22 H8           1.3640     2.9550    -0.4880 hc         1 7NP       0.052200
     23 H9          -1.0730     2.9770     0.0040 ha         1 7NP       0.112000
     24 H10         -3.1870     1.7220    -0.0720 ha         1 7NP       0.118000
     25 H11         -0.9990    -1.9990     0.0470 ha         1 7NP       0.147000
     26 H12         -4.8010     0.2050    -1.0240 h1         1 7NP       0.041033
     27 H13         -5.4600    -1.1920    -0.1470 h1         1 7NP       0.041033
     28 H14         -4.8760     0.2190     0.7590 h1         1 7NP       0.041033
@<TRIPOS>BOND
     1     1     2 2   
     2     2     3 1   
     3     2     4 1   
     4     3     8 ar  
     5     3    12 ar  
     6     4     5 1   
     7     4     6 1   
     8     4    15 1   
     9     5    16 1   
    10     5    17 1   
    11     5    18 1   
    12     6     7 1   
    13     6    19 1   
    14     6    20 1   
    15     7     8 1   
    16     7    21 1   
    17     7    22 1   
    18     8     9 ar  
    19     9    10 ar  
    20     9    23 1   
    21    10    11 ar  
    22    10    24 1   
    23    11    12 ar  
    24    11    13 1   
    25    12    25 1   
    26    13    14 1   
    27    14    26 1   
    28    14    27 1   
    29    14    28 1   
@<TRIPOS>SUBSTRUCTURE
     1 7NP         1 TEMP              0 ****  ****    0 ROOT
