@<TRIPOS>MOLECULE
7NQ
   33    34     1     0     0
SMALL
No Charge or Current Charge


@<TRIPOS>ATOM
      1 C4           0.6690    -0.8070     0.0960 ca         1 7NQ       0.309900
      2 C5           3.1330    -0.8190     0.6600 c          1 7NQ       0.617100
      3 C6           4.3660    -1.7150     0.4860 c3         1 7NQ      -0.163400
      4 C11         -4.2290    -0.3250    -0.1550 ca         1 7NQ      -0.144000
      5 C7           5.3480    -1.1380    -0.5580 c3         1 7NQ      -0.077100
      6 C8          -1.5730    -1.2760    -0.0200 ca         1 7NQ       0.083000
      7 C9          -2.6530    -2.1760    -0.0660 ca         1 7NQ      -0.116000
      8 C10         -3.9760    -1.7060    -0.1330 ca         1 7NQ      -0.070000
      9 C12         -3.1620     0.5870    -0.1100 ca         1 7NQ      -0.037000
     10 C13         -1.8330     0.1160    -0.0430 ca         1 7NQ      -0.182000
     11 N1           0.5340     0.5280     0.0630 nb         1 7NQ      -0.290000
     12 N2           1.9710    -1.3340     0.1200 ns         1 7NQ      -0.327900
     13 C3          -0.7280     0.9990    -0.0000 ca         1 7NQ       0.409300
     14 N3          -0.3050    -1.7310     0.0450 nb         1 7NQ      -0.272000
     15 C1          -0.4800     4.7130    -0.0180 c3         1 7NQ      -0.100100
     16 C2           0.1290     3.3030     0.0270 c3         1 7NQ       0.170600
     17 O1          -0.9590     2.3610    -0.0270 os         1 7NQ      -0.459300
     18 O2           3.1870     0.2420     1.2670 o          1 7NQ      -0.530100
     19 H1           4.8890    -1.7860     1.4470 hc         1 7NQ       0.059700
     20 H2           4.0620    -2.7150     0.1550 hc         1 7NQ       0.059700
     21 H3          -5.2530     0.0390    -0.2070 ha         1 7NQ       0.117000
     22 H4           4.8640    -1.0490    -1.5390 hc         1 7NQ       0.044367
     23 H5           5.7010    -0.1450    -0.2550 hc         1 7NQ       0.044367
     24 H6           6.2210    -1.7930    -0.6660 hc         1 7NQ       0.044367
     25 H7          -2.4650    -3.2470    -0.0500 ha         1 7NQ       0.132000
     26 H8          -4.8030    -2.4120    -0.1680 ha         1 7NQ       0.115000
     27 H9          -3.3750     1.6550    -0.1290 ha         1 7NQ       0.128000
     28 H10          2.0580    -2.2500    -0.2980 hn         1 7NQ       0.167000
     29 H11         -1.0500     4.8590    -0.9430 hc         1 7NQ       0.047700
     30 H12         -1.1490     4.8720     0.8360 hc         1 7NQ       0.047700
     31 H13          0.3120     5.4700     0.0210 hc         1 7NQ       0.047700
     32 H14          0.8070     3.1700    -0.8280 h1         1 7NQ       0.062200
     33 H15          0.7080     3.1830     0.9530 h1         1 7NQ       0.062200
@<TRIPOS>BOND
     1     1    11 ar  
     2     1    12 1   
     3     1    14 ar  
     4     2     3 1   
     5     2    12 1   
     6     2    18 2   
     7     3     5 1   
     8     3    19 1   
     9     3    20 1   
    10     4     8 ar  
    11     4     9 ar  
    12     4    21 1   
    13     5    22 1   
    14     5    23 1   
    15     5    24 1   
    16     6     7 ar  
    17     6    10 ar  
    18     6    14 ar  
    19     7     8 ar  
    20     7    25 1   
    21     8    26 1   
    22     9    10 ar  
    23     9    27 1   
    24    10    13 ar  
    25    11    13 ar  
    26    12    28 1   
    27    13    17 1   
    28    15    16 1   
    29    15    29 1   
    30    15    30 1   
    31    15    31 1   
    32    16    17 1   
    33    16    32 1   
    34    16    33 1   
@<TRIPOS>SUBSTRUCTURE
     1 7NQ         1 TEMP              0 ****  ****    0 ROOT
