@<TRIPOS>MOLECULE
7NQ
   33    34     1     0     0
SMALL
abcg2


@<TRIPOS>ATOM
      1 C4           0.5960    -0.8030     0.0390 ca         1 7NQ       0.309900
      2 C5           3.0980    -0.6860     0.0200 c          1 7NQ       0.617100
      3 C6           4.2510    -1.6690     0.0560 c3         1 7NQ      -0.163400
      4 C11         -4.2740    -0.3120    -0.0220 ca         1 7NQ      -0.144000
      5 C7           5.6090    -1.0110    -0.1040 c3         1 7NQ      -0.077100
      6 C8          -1.6270    -1.2380     0.0190 ca         1 7NQ       0.083000
      7 C9          -2.7020    -2.1510     0.0160 ca         1 7NQ      -0.116000
      8 C10         -3.9940    -1.6910    -0.0040 ca         1 7NQ      -0.070000
      9 C12         -3.2460     0.5970    -0.0200 ca         1 7NQ      -0.037000
     10 C13         -1.9160     0.1420     0.0010 ca         1 7NQ      -0.182000
     11 N1           0.4490     0.5310     0.0310 nb         1 7NQ      -0.290000
     12 N2           1.8770    -1.3190     0.0550 ns         1 7NQ      -0.327900
     13 C3          -0.7680     0.9920     0.0100 ca         1 7NQ       0.409300
     14 N3          -0.3530    -1.7000     0.0360 nb         1 7NQ      -0.272000
     15 C1          -0.4000     4.5900    -0.0250 c3         1 7NQ      -0.100100
     16 C2           0.1390     3.1820     0.0250 c3         1 7NQ       0.170600
     17 O1          -0.9850     2.2870    -0.0020 os         1 7NQ      -0.459300
     18 O2           3.2480     0.5120    -0.0290 o          1 7NQ      -0.530100
     19 H1           4.2000    -2.2180     1.0020 hc         1 7NQ       0.059700
     20 H2           4.0960    -2.4190    -0.7260 hc         1 7NQ       0.059700
     21 H3          -5.3000     0.0280    -0.0380 ha         1 7NQ       0.117000
     22 H4           5.6970    -0.5030    -1.0640 hc         1 7NQ       0.044367
     23 H5           5.7980    -0.2800     0.6810 hc         1 7NQ       0.044367
     24 H6           6.3940    -1.7640    -0.0530 hc         1 7NQ       0.044367
     25 H7          -2.4870    -3.2120     0.0290 ha         1 7NQ       0.132000
     26 H8          -4.8120    -2.3990    -0.0060 ha         1 7NQ       0.115000
     27 H9          -3.4560     1.6580    -0.0340 ha         1 7NQ       0.128000
     28 H10          1.8950    -2.3290     0.0740 hn         1 7NQ       0.167000
     29 H11         -0.9510     4.7770    -0.9480 hc         1 7NQ       0.047700
     30 H12         -1.0540     4.8020     0.8210 hc         1 7NQ       0.047700
     31 H13          0.4340     5.2900     0.0140 hc         1 7NQ       0.047700
     32 H14          0.7920     2.9770    -0.8250 h1         1 7NQ       0.062200
     33 H15          0.7180     3.0100     0.9340 h1         1 7NQ       0.062200
@<TRIPOS>BOND
     1     1    11 ar  
     2     1    12 1   
     3     1    14 ar  
     4     2     3 1   
     5     2    12 1   
     6     2    18 2   
     7     3     5 1   
     8     3    19 1   
     9     3    20 1   
    10     4     8 ar  
    11     4     9 ar  
    12     4    21 1   
    13     5    22 1   
    14     5    23 1   
    15     5    24 1   
    16     6     7 ar  
    17     6    10 ar  
    18     6    14 ar  
    19     7     8 ar  
    20     7    25 1   
    21     8    26 1   
    22     9    10 ar  
    23     9    27 1   
    24    10    13 ar  
    25    11    13 ar  
    26    12    28 1   
    27    13    17 1   
    28    15    16 1   
    29    15    29 1   
    30    15    30 1   
    31    15    31 1   
    32    16    17 1   
    33    16    32 1   
    34    16    33 1   
@<TRIPOS>SUBSTRUCTURE
     1 7NQ         1 TEMP              0 ****  ****    0 ROOT
