@<TRIPOS>MOLECULE
7NR
   56    55     1     0     0
SMALL
abcg2


@<TRIPOS>ATOM
      1 C10         94.8560   121.9780   114.7610 c3         1 7NR      -0.072400
      2 C11         96.1840   125.5220   120.8920 c3         1 7NR      -0.074400
      3 C12         96.3000   122.1070   114.2750 c3         1 7NR      -0.080400
      4 C13         97.3870   126.4720   120.9480 c3         1 7NR      -0.075400
      5 C14         96.6490   121.0920   113.1890 c3         1 7NR      -0.072400
      6 C15         98.6840   125.8080   121.4110 c3         1 7NR      -0.075400
      7 C16         98.1040   121.1530   112.7140 c3         1 7NR      -0.072400
      8 C18         98.5370   122.4890   112.0970 c3         1 7NR      -0.075400
      9 C20         97.7200   122.8990   110.8730 c3         1 7NR      -0.088100
     10 C21        100.9970   128.6400   122.8700 c          1 7NR       0.704000
     11 C04         97.0070   123.3980   117.6760 c3         1 7NR       0.171300
     12 C05         96.0530   122.2130   117.7330 c3         1 7NR      -0.072400
     13 C06         96.6070   124.5940   118.5410 c3         1 7NR      -0.105400
     14 C07         94.6200   122.5170   117.2900 c3         1 7NR      -0.070400
     15 C08         96.3620   124.2780   120.0150 c3         1 7NR      -0.068400
     16 C09         94.4310   122.9870   115.8410 c3         1 7NR      -0.072400
     17 C17         99.8710   126.7640   121.5500 c3         1 7NR      -0.061400
     18 C19         99.7240   127.7990   122.6700 c3         1 7NR      -0.198400
     19 O01         98.3000   122.8890   118.0660 oh         1 7NR      -0.677000
     20 O02        100.9070   129.8850   122.7000 o          1 7NR      -0.745000
     21 O03        102.0460   128.0190   123.1900 o          1 7NR      -0.745000
     22 H1          94.2020   122.0950   113.8910 hc         1 7NR       0.031700
     23 H2          94.6850   120.9600   115.1310 hc         1 7NR       0.031700
     24 H3          95.3090   126.0820   120.5440 hc         1 7NR       0.028200
     25 H4          95.9530   125.1960   121.9120 hc         1 7NR       0.028200
     26 H5          96.9980   121.9870   115.1080 hc         1 7NR       0.044700
     27 H6          96.4500   123.1230   113.8970 hc         1 7NR       0.044700
     28 H7          97.1370   127.2960   121.6210 hc         1 7NR       0.039700
     29 H8          97.5540   126.9270   119.9660 hc         1 7NR       0.039700
     30 H9          95.9740   121.2280   112.3380 hc         1 7NR       0.032700
     31 H10         96.4510   120.0850   113.5720 hc         1 7NR       0.032700
     32 H11         98.9560   125.0210   120.7020 hc         1 7NR       0.020700
     33 H12         98.5100   125.3090   122.3720 hc         1 7NR       0.020700
     34 H13         98.2680   120.3590   111.9770 hc         1 7NR       0.036700
     35 H14         98.7610   120.9290   113.5610 hc         1 7NR       0.036700
     36 H15         99.5910   122.4120   111.8160 hc         1 7NR       0.038700
     37 H16         98.4820   123.2790   112.8520 hc         1 7NR       0.038700
     38 H17         98.1150   123.8140   110.4260 hc         1 7NR       0.029033
     39 H18         97.7410   122.1160   110.1090 hc         1 7NR       0.029033
     40 H19         96.6740   123.0810   111.1290 hc         1 7NR       0.029033
     41 H20         97.0780   123.7490   116.6410 h1         1 7NR       0.023700
     42 H21         96.0340   121.8320   118.7580 hc         1 7NR       0.050700
     43 H22         96.4720   121.4130   117.1180 hc         1 7NR       0.050700
     44 H23         97.4040   125.3390   118.4460 hc         1 7NR       0.043700
     45 H24         95.7130   125.0560   118.1090 hc         1 7NR       0.043700
     46 H25         94.1890   123.2680   117.9590 hc         1 7NR       0.036700
     47 H26         94.0250   121.6090   117.4320 hc         1 7NR       0.036700
     48 H27         95.4650   123.6600   120.1110 hc         1 7NR       0.039200
     49 H28         97.1890   123.6750   120.3970 hc         1 7NR       0.039200
     50 H29         94.9540   123.9350   115.6780 hc         1 7NR       0.035700
     51 H30         93.3670   123.2100   115.7150 hc         1 7NR       0.035700
     52 H31        100.7760   126.1810   121.7390 hc         1 7NR       0.038700
     53 H32        100.0280   127.2830   120.5970 hc         1 7NR       0.038700
     54 H33         98.8840   128.4650   122.4700 hc         1 7NR       0.017200
     55 H34         99.5140   127.2730   123.6080 hc         1 7NR       0.017200
     56 H35         98.9290   123.6210   118.0330 ho         1 7NR       0.446000
@<TRIPOS>BOND
     1     1     3 1   
     2     1    16 1   
     3     1    22 1   
     4     1    23 1   
     5     2     4 1   
     6     2    15 1   
     7     2    24 1   
     8     2    25 1   
     9     3     5 1   
    10     3    26 1   
    11     3    27 1   
    12     4     6 1   
    13     4    28 1   
    14     4    29 1   
    15     5     7 1   
    16     5    30 1   
    17     5    31 1   
    18     6    17 1   
    19     6    32 1   
    20     6    33 1   
    21     7     8 1   
    22     7    34 1   
    23     7    35 1   
    24     8     9 1   
    25     8    36 1   
    26     8    37 1   
    27     9    38 1   
    28     9    39 1   
    29     9    40 1   
    30    10    18 1   
    31    10    20 1   
    32    10    21 1   
    33    11    12 1   
    34    11    13 1   
    35    11    19 1   
    36    11    41 1   
    37    12    14 1   
    38    12    42 1   
    39    12    43 1   
    40    13    15 1   
    41    13    44 1   
    42    13    45 1   
    43    14    16 1   
    44    14    46 1   
    45    14    47 1   
    46    15    48 1   
    47    15    49 1   
    48    16    50 1   
    49    16    51 1   
    50    17    18 1   
    51    17    52 1   
    52    17    53 1   
    53    18    54 1   
    54    18    55 1   
    55    19    56 1   
@<TRIPOS>SUBSTRUCTURE
     1 7NR         1 TEMP              0 ****  ****    0 ROOT
