@<TRIPOS>MOLECULE
7NR
   56    55     1     0     0
SMALL
No Charge or Current Charge


@<TRIPOS>ATOM
      1 C10         94.7030   122.2330   114.6880 c3         1 7NR      -0.072400
      2 C11         96.3110   125.2520   120.9660 c3         1 7NR      -0.074400
      3 C12         96.1800   122.1220   114.2400 c3         1 7NR      -0.080400
      4 C13         97.4070   126.3480   120.9760 c3         1 7NR      -0.075400
      5 C14         96.3540   121.2870   112.9500 c3         1 7NR      -0.072400
      6 C15         98.7690   125.8900   121.5550 c3         1 7NR      -0.075400
      7 C16         97.8280   121.0710   112.5210 c3         1 7NR      -0.072400
      8 C18         98.6370   122.3550   112.2080 c3         1 7NR      -0.075400
      9 C20         98.0610   123.2070   111.0590 c3         1 7NR      -0.088100
     10 C21        100.7870   129.1230   122.5760 c          1 7NR       0.704000
     11 C04         97.0920   122.9930   117.7400 c3         1 7NR       0.171300
     12 C05         95.9480   121.9420   117.7450 c3         1 7NR      -0.072400
     13 C06         96.8440   124.2500   118.6180 c3         1 7NR      -0.105400
     14 C07         94.5520   122.4620   117.3110 c3         1 7NR      -0.070400
     15 C08         96.6170   123.9820   120.1310 c3         1 7NR      -0.068400
     16 C09         94.4500   123.1430   115.9190 c3         1 7NR      -0.072400
     17 C17         99.8620   126.9870   121.5720 c3         1 7NR      -0.061400
     18 C19         99.5720   128.1790   122.5220 c3         1 7NR      -0.198400
     19 O01         98.3040   122.3550   118.1560 oh         1 7NR      -0.677000
     20 O02        100.8550   130.0250   121.7540 o          1 7NR      -0.745000
     21 O03        101.6540   128.9020   123.4070 o          1 7NR      -0.745000
     22 H1          94.1280   122.6410   113.8470 hc         1 7NR       0.031700
     23 H2          94.2960   121.2330   114.8810 hc         1 7NR       0.031700
     24 H3          95.3790   125.6970   120.5960 hc         1 7NR       0.028200
     25 H4          96.1130   124.9470   122.0010 hc         1 7NR       0.028200
     26 H5          96.7840   121.6680   115.0310 hc         1 7NR       0.044700
     27 H6          96.5730   123.1320   114.0750 hc         1 7NR       0.044700
     28 H7          97.0290   127.1870   121.5710 hc         1 7NR       0.039700
     29 H8          97.5530   126.7360   119.9600 hc         1 7NR       0.039700
     30 H9          95.7970   121.7580   112.1310 hc         1 7NR       0.032700
     31 H10         95.8970   120.3020   113.1060 hc         1 7NR       0.032700
     32 H11         99.1480   125.0520   120.9590 hc         1 7NR       0.020700
     33 H12         98.6230   125.5100   122.5730 hc         1 7NR       0.020700
     34 H13         97.8410   120.4230   111.6350 hc         1 7NR       0.036700
     35 H14         98.3460   120.5160   113.3130 hc         1 7NR       0.036700
     36 H15         99.6600   122.0610   111.9420 hc         1 7NR       0.038700
     37 H16         98.7220   122.9720   113.1110 hc         1 7NR       0.038700
     38 H17         98.7310   124.0460   110.8360 hc         1 7NR       0.029033
     39 H18         97.9500   122.6070   110.1480 hc         1 7NR       0.029033
     40 H19         97.0810   123.6200   111.3260 hc         1 7NR       0.029033
     41 H20         97.2190   123.3440   116.7070 h1         1 7NR       0.023700
     42 H21         95.8570   121.5150   118.7500 hc         1 7NR       0.050700
     43 H22         96.2280   121.1000   117.1030 hc         1 7NR       0.050700
     44 H23         97.7030   124.9210   118.4980 hc         1 7NR       0.043700
     45 H24         95.9810   124.7970   118.2210 hc         1 7NR       0.043700
     46 H25         94.1940   123.1710   118.0670 hc         1 7NR       0.036700
     47 H26         93.8480   121.6210   117.3400 hc         1 7NR       0.036700
     48 H27         95.7680   123.2990   120.2510 hc         1 7NR       0.039200
     49 H28         97.4860   123.4650   120.5530 hc         1 7NR       0.039200
     50 H29         95.1060   124.0200   115.8760 hc         1 7NR       0.035700
     51 H30         93.4300   123.5360   115.8310 hc         1 7NR       0.035700
     52 H31        100.8080   126.5200   121.8740 hc         1 7NR       0.038700
     53 H32        100.0140   127.3620   120.5520 hc         1 7NR       0.038700
     54 H33         98.7060   128.7040   122.1020 hc         1 7NR       0.017200
     55 H34         99.3870   127.7380   123.5090 hc         1 7NR       0.017200
     56 H35         99.0040   123.0430   118.1480 ho         1 7NR       0.446000
@<TRIPOS>BOND
     1     1     3 1   
     2     1    16 1   
     3     1    22 1   
     4     1    23 1   
     5     2     4 1   
     6     2    15 1   
     7     2    24 1   
     8     2    25 1   
     9     3     5 1   
    10     3    26 1   
    11     3    27 1   
    12     4     6 1   
    13     4    28 1   
    14     4    29 1   
    15     5     7 1   
    16     5    30 1   
    17     5    31 1   
    18     6    17 1   
    19     6    32 1   
    20     6    33 1   
    21     7     8 1   
    22     7    34 1   
    23     7    35 1   
    24     8     9 1   
    25     8    36 1   
    26     8    37 1   
    27     9    38 1   
    28     9    39 1   
    29     9    40 1   
    30    10    18 1   
    31    10    20 1   
    32    10    21 1   
    33    11    12 1   
    34    11    13 1   
    35    11    19 1   
    36    11    41 1   
    37    12    14 1   
    38    12    42 1   
    39    12    43 1   
    40    13    15 1   
    41    13    44 1   
    42    13    45 1   
    43    14    16 1   
    44    14    46 1   
    45    14    47 1   
    46    15    48 1   
    47    15    49 1   
    48    16    50 1   
    49    16    51 1   
    50    17    18 1   
    51    17    52 1   
    52    17    53 1   
    53    18    54 1   
    54    18    55 1   
    55    19    56 1   
@<TRIPOS>SUBSTRUCTURE
     1 7NR         1 TEMP              0 ****  ****    0 ROOT
