@<TRIPOS>MOLECULE
7NT
   36    38     1     0     0
SMALL
No Charge or Current Charge


@<TRIPOS>ATOM
      1 C01          5.7060     1.9440    -0.8410 c3         1 7NT      -0.077100
      2 C02          4.6670     2.2130     0.2700 c3         1 7NT      -0.161400
      3 C03          3.7690     0.9930     0.5150 c          1 7NT       0.611100
      4 O04          4.1750     0.0020     1.1070 o          1 7NT      -0.521100
      5 N05          2.4740     1.1350     0.0550 ns         1 7NT      -0.325900
      6 C06          1.3820     0.2490     0.1080 ca         1 7NT       0.300900
      7 N07          0.1790     0.8560     0.0500 nb         1 7NT      -0.332000
      8 C08         -0.9010     0.0470     0.0800 ca         1 7NT       0.447900
      9 N09         -2.1690     0.6590     0.0090 nh         1 7NT      -0.766300
     10 C10         -2.3850     2.0230     0.5970 c6         1 7NT       0.174800
     11 C11         -3.8980     2.3380     0.7930 c6         1 7NT       0.143600
     12 O12         -4.6310     2.1240    -0.4360 os         1 7NT      -0.443000
     13 C13         -4.5230     0.7630    -0.9180 c6         1 7NT       0.143600
     14 C14         -3.0350     0.3910    -1.1850 c6         1 7NT       0.174800
     15 C15         -0.7400    -1.3480     0.1810 ca         1 7NT      -0.243800
     16 C16         -1.7580    -2.3740     0.2820 cc         1 7NT      -0.138200
     17 C17         -1.1980    -3.6370     0.3810 cd         1 7NT      -0.199400
     18 S18          0.5930    -3.6230     0.3570 ss         1 7NT      -0.087900
     19 C19          0.5440    -1.8550     0.2270 ca         1 7NT       0.176300
     20 N20          1.6370    -1.0750     0.1880 nb         1 7NT      -0.175000
     21 H1           6.3360     2.8270    -0.9990 hc         1 7NT       0.044700
     22 H2           6.3560     1.1030    -0.5710 hc         1 7NT       0.044700
     23 H3           5.2070     1.7040    -1.7890 hc         1 7NT       0.044700
     24 H021         5.2070     2.4460     1.1950 hc         1 7NT       0.057700
     25 H022         4.0590     3.0750    -0.0310 hc         1 7NT       0.057700
     26 H051         2.2620     2.0300    -0.3630 hn         1 7NT       0.164000
     27 H101        -1.8860     2.1010     1.5740 h1         1 7NT       0.060450
     28 H102        -1.9470     2.7910    -0.0580 h1         1 7NT       0.060450
     29 H111        -4.3140     1.6900     1.5790 h1         1 7NT       0.055200
     30 H112        -4.0240     3.3820     1.1110 h1         1 7NT       0.055200
     31 H131        -4.9510     0.0790    -0.1710 h1         1 7NT       0.055200
     32 H132        -5.1050     0.6610    -1.8450 h1         1 7NT       0.055200
     33 H141        -2.6750     0.9760    -2.0440 h1         1 7NT       0.060450
     34 H142        -2.9860    -0.6670    -1.4780 h1         1 7NT       0.060450
     35 H161        -2.8320    -2.1920     0.3050 ha         1 7NT       0.200000
     36 H171        -1.7240    -4.5830     0.4750 h4         1 7NT       0.219000
@<TRIPOS>BOND
     1     1     2 1   
     2     1    21 1   
     3     1    22 1   
     4     1    23 1   
     5     2     3 1   
     6     2    24 1   
     7     2    25 1   
     8     3     4 2   
     9     3     5 1   
    10     5     6 1   
    11     5    26 1   
    12     6     7 ar  
    13     6    20 ar  
    14     7     8 ar  
    15     8     9 1   
    16     8    15 ar  
    17     9    10 1   
    18     9    14 1   
    19    10    11 1   
    20    10    27 1   
    21    10    28 1   
    22    11    12 1   
    23    11    29 1   
    24    11    30 1   
    25    12    13 1   
    26    13    14 1   
    27    13    31 1   
    28    13    32 1   
    29    14    33 1   
    30    14    34 1   
    31    15    16 1   
    32    15    19 ar  
    33    16    17 2   
    34    16    35 1   
    35    17    18 1   
    36    17    36 1   
    37    18    19 1   
    38    19    20 ar  
@<TRIPOS>SUBSTRUCTURE
     1 7NT         1 TEMP              0 ****  ****    0 ROOT
