@<TRIPOS>MOLECULE
7NT
   36    38     1     0     0
SMALL
bcc


@<TRIPOS>ATOM
      1 C01          5.9820     2.0130    -0.1430 c3         1 7NT      -0.077100
      2 C02          4.4870     2.2020     0.0280 c3         1 7NT      -0.161400
      3 C03          3.7010     0.9100    -0.0500 c          1 7NT       0.678100
      4 O04          4.2180    -0.1790    -0.1540 o          1 7NT      -0.521100
      5 N05          2.3450     1.1170     0.0180 ns         1 7NT      -0.559400
      6 C06          1.3060     0.2060     0.0050 ca         1 7NT       0.826900
      7 N07          0.1070     0.7900    -0.0060 nb         1 7NT      -0.858000
      8 C08         -0.9870     0.0430    -0.0220 ca         1 7NT       0.776200
      9 N09         -2.1840     0.6820    -0.0660 nh         1 7NT      -0.766300
     10 C10         -2.2210     2.1300     0.0800 c6         1 7NT       0.174800
     11 C11         -3.5940     2.5440     0.5800 c6         1 7NT       0.120400
     12 O12         -4.6300     2.0860    -0.2580 os         1 7NT      -0.396600
     13 C13         -4.6020     0.6820    -0.3660 c6         1 7NT       0.120400
     14 C14         -3.2720     0.1990    -0.9090 c6         1 7NT       0.174800
     15 C15         -0.8590    -1.3730     0.0490 ca         1 7NT      -0.374400
     16 C16         -1.7950    -2.4470     0.2130 cc         1 7NT      -0.088200
     17 C17         -1.1920    -3.6550     0.2640 cd         1 7NT      -0.149400
     18 S18          0.5300    -3.5580     0.1370 ss         1 7NT      -0.087900
     19 C19          0.4580    -1.8330     0.0300 ca         1 7NT       0.504600
     20 N20          1.5570    -1.0840    -0.0090 nb         1 7NT      -0.701000
     21 H1           6.4870     2.9740    -0.0560 hc         1 7NT       0.044700
     22 H2           6.3940     1.3510     0.6180 hc         1 7NT       0.044700
     23 H3           6.2260     1.5970    -1.1200 hc         1 7NT       0.044700
     24 H021         4.2670     2.6710     0.9920 hc         1 7NT       0.057700
     25 H022         4.0990     2.8930    -0.7270 hc         1 7NT       0.057700
     26 H051         2.0330     2.0770     0.0650 hn         1 7NT       0.330500
     27 H101        -1.4740     2.4490     0.8030 h1         1 7NT       0.060450
     28 H102        -1.9920     2.6240    -0.8720 h1         1 7NT       0.060450
     29 H111        -3.7330     2.1680     1.6030 h1         1 7NT       0.055200
     30 H112        -3.6540     3.6330     0.6120 h1         1 7NT       0.055200
     31 H131        -4.7930     0.2130     0.6090 h1         1 7NT       0.055200
     32 H132        -5.4020     0.3870    -1.0470 h1         1 7NT       0.055200
     33 H141        -3.1300     0.5730    -1.9310 h1         1 7NT       0.060450
     34 H142        -3.2830    -0.8840    -0.9690 h1         1 7NT       0.060450
     35 H161        -2.8630    -2.3370     0.3220 ha         1 7NT       0.150000
     36 H171        -1.6660    -4.6160     0.3870 h4         1 7NT       0.169000
@<TRIPOS>BOND
     1     1     2 1   
     2     1    21 1   
     3     1    22 1   
     4     1    23 1   
     5     2     3 1   
     6     2    24 1   
     7     2    25 1   
     8     3     4 2   
     9     3     5 1   
    10     5     6 1   
    11     5    26 1   
    12     6     7 ar  
    13     6    20 ar  
    14     7     8 ar  
    15     8     9 1   
    16     8    15 ar  
    17     9    10 1   
    18     9    14 1   
    19    10    11 1   
    20    10    27 1   
    21    10    28 1   
    22    11    12 1   
    23    11    29 1   
    24    11    30 1   
    25    12    13 1   
    26    13    14 1   
    27    13    31 1   
    28    13    32 1   
    29    14    33 1   
    30    14    34 1   
    31    15    16 1   
    32    15    19 ar  
    33    16    17 2   
    34    16    35 1   
    35    17    18 1   
    36    17    36 1   
    37    18    19 1   
    38    19    20 ar  
@<TRIPOS>SUBSTRUCTURE
     1 7NT         1 TEMP              0 ****  ****    0 ROOT
