@<TRIPOS>MOLECULE
7NU
   35    37     1     0     0
SMALL
No Charge or Current Charge


@<TRIPOS>ATOM
      1 O2          -0.9840     3.1230     0.5580 oh         1 7NU      -0.726000
      2 C2          -1.2390     1.8150    -0.0180 c6         1 7NU       0.109300
      3 C3          -2.5710     1.2250     0.5410 c6         1 7NU       0.139300
      4 O3          -3.6610     2.1150     0.2400 oh         1 7NU      -0.662000
      5 C1          -0.0790     0.7990     0.2450 c6         1 7NU       0.372300
      6 O5          -0.4010    -0.4620    -0.3780 os         1 7NU      -0.459000
      7 C5          -1.5800    -1.0910     0.1810 c6         1 7NU       0.190300
      8 C6          -1.7470    -2.5080    -0.4000 cx         1 7NU       0.103300
      9 O6          -1.7660    -3.6100     0.5440 op         1 7NU      -0.437000
     10 C7          -0.6000    -3.4750    -0.3010 cx         1 7NU       0.077600
     11 C4          -2.8460    -0.1960    -0.0440 c6         1 7NU       0.153300
     12 O4          -3.1900    -0.0690    -1.4400 oh         1 7NU      -0.706000
     13 O1           1.1560     1.3030    -0.2980 os         1 7NU      -0.343100
     14 C8           2.3570     0.6570    -0.0750 ca         1 7NU       0.138100
     15 C9           3.4950     1.1630    -0.7260 ca         1 7NU      -0.156000
     16 C10          4.7520     0.5610    -0.5400 ca         1 7NU      -0.080000
     17 C11          4.8750    -0.5550     0.3040 ca         1 7NU      -0.138000
     18 C12          3.7450    -1.0660     0.9640 ca         1 7NU      -0.080000
     19 C13          2.4870    -0.4630     0.7790 ca         1 7NU      -0.156000
     20 H1          -0.0880     3.4010     0.2470 ho         1 7NU       0.525000
     21 H2          -1.3380     1.9070    -1.1110 h1         1 7NU       0.080700
     22 H3          -2.4670     1.1270     1.6320 h1         1 7NU       0.046700
     23 H4          -3.3090     3.0170     0.4300 ho         1 7NU       0.469000
     24 H5           0.0330     0.6610     1.3310 h2         1 7NU       0.041700
     25 H6          -1.4210    -1.2030     1.2640 h1         1 7NU       0.045700
     26 H7          -2.4220    -2.5980    -1.2520 h1         1 7NU       0.118700
     27 H8          -0.4870    -4.2410    -1.0670 h1         1 7NU       0.078200
     28 H9           0.3130    -3.1670     0.2090 h1         1 7NU       0.078200
     29 H10         -3.6860    -0.6410     0.5110 h1         1 7NU       0.064700
     30 H11         -3.7430     0.7500    -1.4800 ho         1 7NU       0.523000
     31 H12          3.4020     2.0260    -1.3800 ha         1 7NU       0.123500
     32 H13          5.6270     0.9580    -1.0500 ha         1 7NU       0.113500
     33 H14          5.8470    -1.0220     0.4490 ha         1 7NU       0.116000
     34 H15          3.8430    -1.9290     1.6190 ha         1 7NU       0.113500
     35 H16          1.6330    -0.8800     1.3040 ha         1 7NU       0.123500
@<TRIPOS>BOND
     1     1     2 1   
     2     1    20 1   
     3     2     3 1   
     4     2     5 1   
     5     2    21 1   
     6     3     4 1   
     7     3    11 1   
     8     3    22 1   
     9     4    23 1   
    10     5     6 1   
    11     5    13 1   
    12     5    24 1   
    13     6     7 1   
    14     7     8 1   
    15     7    11 1   
    16     7    25 1   
    17     8     9 1   
    18     8    10 1   
    19     8    26 1   
    20     9    10 1   
    21    10    27 1   
    22    10    28 1   
    23    11    12 1   
    24    11    29 1   
    25    12    30 1   
    26    13    14 1   
    27    14    15 ar  
    28    14    19 ar  
    29    15    16 ar  
    30    15    31 1   
    31    16    17 ar  
    32    16    32 1   
    33    17    18 ar  
    34    17    33 1   
    35    18    19 ar  
    36    18    34 1   
    37    19    35 1   
@<TRIPOS>SUBSTRUCTURE
     1 7NU         1 TEMP              0 ****  ****    0 ROOT
