@<TRIPOS>MOLECULE
7NU
   35    37     1     0     0
SMALL
abcg2


@<TRIPOS>ATOM
      1 O2          -0.7160     2.8950     0.6080 oh         1 7NU      -0.726000
      2 C2          -1.0710     1.7070    -0.0530 c6         1 7NU       0.109300
      3 C3          -2.3510     1.1870     0.5910 c6         1 7NU       0.139300
      4 O3          -3.4350     2.0590     0.3980 oh         1 7NU      -0.662000
      5 C1           0.0150     0.6430     0.0920 c6         1 7NU       0.372300
      6 O5          -0.3940    -0.5610    -0.4930 os         1 7NU      -0.459000
      7 C5          -1.5390    -1.1110     0.1300 c6         1 7NU       0.190300
      8 C6          -1.7690    -2.4480    -0.5220 cx         1 7NU       0.103300
      9 O6          -2.6520    -3.3090     0.1670 op         1 7NU      -0.437000
     10 C7          -1.2770    -3.6670     0.1060 cx         1 7NU       0.077600
     11 C4          -2.7320    -0.1710     0.0030 c6         1 7NU       0.153300
     12 O4          -3.0830    -0.0790    -1.3540 oh         1 7NU      -0.706000
     13 O1           1.1410     1.0900    -0.5860 os         1 7NU      -0.343100
     14 C8           2.3680     0.6060    -0.2510 ca         1 7NU       0.138100
     15 C9           3.4560     1.3690    -0.6680 ca         1 7NU      -0.156000
     16 C10          4.7450     0.9530    -0.3780 ca         1 7NU      -0.080000
     17 C11          4.9640    -0.2210     0.3340 ca         1 7NU      -0.138000
     18 C12          3.8760    -0.9750     0.7450 ca         1 7NU      -0.080000
     19 C13          2.5760    -0.5770     0.4520 ca         1 7NU      -0.156000
     20 H1          -0.0860     3.3790     0.0650 ho         1 7NU       0.525000
     21 H2          -1.2490     1.8760    -1.1230 h1         1 7NU       0.080700
     22 H3          -2.1550     1.0370     1.6650 h1         1 7NU       0.046700
     23 H4          -3.1770     2.9390     0.6950 ho         1 7NU       0.469000
     24 H5           0.2420     0.4910     1.1630 h2         1 7NU       0.041700
     25 H6          -1.3530    -1.2660     1.2050 h1         1 7NU       0.045700
     26 H7          -1.8860    -2.4310    -1.6040 h1         1 7NU       0.118700
     27 H8          -1.0390    -4.5290    -0.5100 h1         1 7NU       0.078200
     28 H9          -0.7320    -3.6060     1.0450 h1         1 7NU       0.078200
     29 H10         -3.5530    -0.5890     0.6040 h1         1 7NU       0.064700
     30 H11         -3.8130     0.5450    -1.4360 ho         1 7NU       0.523000
     31 H12          3.2830     2.2870    -1.2160 ha         1 7NU       0.123500
     32 H13          5.5830     1.5550    -0.7050 ha         1 7NU       0.113500
     33 H14          5.9710    -0.5440     0.5620 ha         1 7NU       0.116000
     34 H15          4.0300    -1.8950     1.2940 ha         1 7NU       0.113500
     35 H16          1.7520    -1.2050     0.7620 ha         1 7NU       0.123500
@<TRIPOS>BOND
     1     1     2 1   
     2     1    20 1   
     3     2     3 1   
     4     2     5 1   
     5     2    21 1   
     6     3     4 1   
     7     3    11 1   
     8     3    22 1   
     9     4    23 1   
    10     5     6 1   
    11     5    13 1   
    12     5    24 1   
    13     6     7 1   
    14     7     8 1   
    15     7    11 1   
    16     7    25 1   
    17     8     9 1   
    18     8    10 1   
    19     8    26 1   
    20     9    10 1   
    21    10    27 1   
    22    10    28 1   
    23    11    12 1   
    24    11    29 1   
    25    12    30 1   
    26    13    14 1   
    27    14    15 ar  
    28    14    19 ar  
    29    15    16 ar  
    30    15    31 1   
    31    16    17 ar  
    32    16    32 1   
    33    17    18 ar  
    34    17    33 1   
    35    18    19 ar  
    36    18    34 1   
    37    19    35 1   
@<TRIPOS>SUBSTRUCTURE
     1 7NU         1 TEMP              0 ****  ****    0 ROOT
