@<TRIPOS>MOLECULE
7NV
   58    60     1     0     0
SMALL
No Charge or Current Charge


@<TRIPOS>ATOM
      1 C15         -2.2730    -3.5530    -1.1980 ca         1 7NV      -0.103000
      2 C16         -1.9930    -2.7250    -2.2970 ca         1 7NV      -0.109500
      3 C17         -2.0310    -1.3270    -2.1530 ca         1 7NV      -0.085500
      4 C23          2.5810    -0.5220     1.4100 ca         1 7NV      -0.135000
      5 C6          -8.3710     0.4210     0.3460 c3         1 7NV      -0.073400
      6 C24          3.3020    -1.7320     1.4430 ca         1 7NV      -0.128000
      7 C7          -8.9910    -0.6140     1.3050 c3         1 7NV      -0.089100
      8 C9           0.3030     2.0920     2.2540 c3         1 7NV       0.087300
      9 C13         -2.3960     0.7730    -0.7540 c3         1 7NV       0.104000
     10 C30          4.3320     0.5160     0.0320 ca         1 7NV      -0.097600
     11 C5          -6.8710     0.1710     0.0760 c3         1 7NV      -0.097400
     12 C18         -2.3490    -0.7480    -0.9080 ca         1 7NV      -0.101300
     13 C22          3.0780     0.6090     0.7040 ca         1 7NV      -0.076300
     14 C25          4.5190    -1.7890     0.7600 ca         1 7NV       0.022100
     15 C29          5.0160    -0.7110     0.0830 ca         1 7NV       0.072100
     16 C2          -3.8040     1.2470    -0.2850 c          1 7NV       0.595100
     17 C27          6.4070    -2.4080    -0.1990 c5         1 7NV       0.370600
     18 C4          -6.2530     1.2080    -0.8850 c3         1 7NV       0.103000
     19 C19         -2.6260    -1.5860     0.1920 ca         1 7NV      -0.085500
     20 C21          2.2820     1.9220     0.6730 c3         1 7NV       0.155300
     21 N3          -4.8390     0.9370    -1.1450 ns         1 7NV      -0.500900
     22 O33          5.2040     2.6900    -0.0670 o          1 7NV      -0.708500
     23 O1          -3.9980     1.8380     0.7730 o          1 7NV      -0.618100
     24 O32          5.0920     1.5870    -1.9150 o          1 7NV      -0.708500
     25 O26          5.3490    -2.8620     0.7140 os         1 7NV      -0.372100
     26 O28          6.2330    -0.9730    -0.4650 os         1 7NV      -0.312100
     27 O11          0.4050     1.1190    -1.2660 o          1 7NV      -0.624100
     28 C3          -2.5880    -2.9830     0.0460 ca         1 7NV      -0.109500
     29 N25         -1.3440     1.2390     0.1710 ns         1 7NV      -0.524900
     30 N26          0.8220     1.7850     0.9000 n          1 7NV      -0.415800
     31 H15         -2.2440    -4.6350    -1.3100 ha         1 7NV       0.107000
     32 H16         -1.7460    -3.1650    -3.2610 ha         1 7NV       0.109000
     33 H3          -2.8030    -3.6240     0.8990 ha         1 7NV       0.109000
     34 H17         -1.8080    -0.6950    -3.0100 ha         1 7NV       0.111500
     35 H23          1.6330    -0.4690     1.9390 ha         1 7NV       0.089000
     36 H24          2.9250    -2.5950     1.9860 ha         1 7NV       0.103000
     37 H61C        -8.9200     0.4020    -0.6030 hc         1 7NV       0.040200
     38 H62C        -8.5010     1.4240     0.7710 hc         1 7NV       0.040200
     39 H71C       -10.0530    -0.3960     1.4660 hc         1 7NV       0.032033
     40 H72C        -8.9070    -1.6260     0.8910 hc         1 7NV       0.032033
     41 H73C        -8.4850    -0.5940     2.2780 hc         1 7NV       0.032033
     42 H51C        -6.3260     0.1890     1.0270 hc         1 7NV       0.044700
     43 H52C        -6.7430    -0.8320    -0.3500 hc         1 7NV       0.044700
     44 H91C        -0.2280     1.2200     2.6560 h1         1 7NV       0.032033
     45 H92C         1.1260     2.3420     2.9360 h1         1 7NV       0.032033
     46 H93C        -0.3850     2.9460     2.2020 h1         1 7NV       0.032033
     47 H13         -2.2260     1.2400    -1.7330 h1         1 7NV       0.075700
     48 H25         -1.6170     1.4920     1.1110 hn         1 7NV       0.330500
     49 H41C        -6.7930     1.1890    -1.8410 h1         1 7NV       0.050700
     50 H42C        -6.3550     2.2160    -0.4600 h1         1 7NV       0.050700
     51 H19         -2.8700    -1.1550     1.1610 ha         1 7NV       0.111500
     52 H211         2.7050     2.6030     1.4230 h1         1 7NV       0.092700
     53 H212         2.4260     2.4090    -0.3000 h1         1 7NV       0.092700
     54 HA          -4.5930     0.4300    -1.9880 hn         1 7NV       0.317500
     55 H271         7.3910    -2.5850     0.2520 h2         1 7NV       0.040700
     56 H272         6.3190    -2.9550    -1.1440 h2         1 7NV       0.040700
     57 C12         -0.0160     1.3590    -0.1460 c          1 7NV       0.649100
     58 C31          4.9360     1.6820    -0.7060 c          1 7NV       0.722600
@<TRIPOS>BOND
     1     1     2 ar  
     2     1    28 ar  
     3     1    31 1   
     4     2     3 ar  
     5     2    32 1   
     6     3    12 ar  
     7     3    34 1   
     8     4     6 ar  
     9     4    13 ar  
    10     4    35 1   
    11     5     7 1   
    12     5    11 1   
    13     5    37 1   
    14     5    38 1   
    15     6    14 ar  
    16     6    36 1   
    17     7    39 1   
    18     7    40 1   
    19     7    41 1   
    20     8    30 1   
    21     8    44 1   
    22     8    45 1   
    23     8    46 1   
    24     9    12 1   
    25     9    16 1   
    26     9    29 1   
    27     9    47 1   
    28    10    13 ar  
    29    10    15 ar  
    30    10    58 1   
    31    11    18 1   
    32    11    42 1   
    33    11    43 1   
    34    12    19 ar  
    35    13    20 1   
    36    14    15 ar  
    37    14    25 1   
    38    15    26 1   
    39    16    21 1   
    40    16    23 2   
    41    17    25 1   
    42    17    26 1   
    43    17    55 1   
    44    17    56 1   
    45    18    21 1   
    46    18    49 1   
    47    18    50 1   
    48    19    28 ar  
    49    19    51 1   
    50    20    30 1   
    51    20    52 1   
    52    20    53 1   
    53    21    54 1   
    54    22    58 1   
    55    24    58 1   
    56    27    57 2   
    57    28    33 1   
    58    29    48 1   
    59    29    57 1   
    60    30    57 1   
@<TRIPOS>SUBSTRUCTURE
     1 7NV         1 TEMP              0 ****  ****    0 ROOT
