@<TRIPOS>MOLECULE
7NV
   58    60     1     0     0
SMALL
abcg2


@<TRIPOS>ATOM
      1 C15         -1.6340    -3.3000    -0.6930 ca         1 7NV      -0.103000
      2 C16         -2.1420    -2.6050    -1.7830 ca         1 7NV      -0.109500
      3 C17         -2.3560    -1.2360    -1.6960 ca         1 7NV      -0.085500
      4 C23          2.1120    -0.2330     0.9930 ca         1 7NV      -0.135000
      5 C6          -8.3660    -0.0970     0.4040 c3         1 7NV      -0.073400
      6 C24          2.5690    -1.5140     1.3250 ca         1 7NV      -0.128000
      7 C7          -9.3740    -0.9210    -0.3830 c3         1 7NV      -0.089100
      8 C9           0.7360     2.7880     1.6840 c3         1 7NV       0.087300
      9 C13         -2.3410     0.9410    -0.4200 c3         1 7NV       0.104000
     10 C30          4.1760     0.3140    -0.1640 ca         1 7NV      -0.097600
     11 C5          -7.0270     0.0240    -0.3130 c3         1 7NV      -0.097400
     12 C18         -2.0700    -0.5490    -0.5230 ca         1 7NV      -0.101300
     13 C22          2.8800     0.6740     0.2770 ca         1 7NV      -0.076300
     14 C25          3.8250    -1.8450     0.8950 ca         1 7NV       0.022100
     15 C29          4.5940    -0.9580     0.1580 ca         1 7NV       0.072100
     16 C2          -3.5940     1.1230     0.4430 c          1 7NV       0.595100
     17 C27          5.7010    -2.8830     0.3200 c5         1 7NV       0.370600
     18 C4          -6.0310     0.8560     0.4780 c3         1 7NV       0.103000
     19 C19         -1.5690    -1.2510     0.5690 ca         1 7NV      -0.085500
     20 C21          2.3250     2.0440    -0.0740 c3         1 7NV       0.155300
     21 N3          -4.7460     0.8970    -0.1910 ns         1 7NV      -0.500900
     22 O33          5.1990     2.4080    -0.5340 o          1 7NV      -0.708500
     23 O1          -3.5120     1.3950     1.6320 o          1 7NV      -0.618100
     24 O32          5.6620     0.7370    -1.9350 o          1 7NV      -0.708500
     25 O26          4.5200    -2.9930     1.1020 os         1 7NV      -0.372100
     26 O28          5.7970    -1.5340    -0.1060 os         1 7NV      -0.312100
     27 O11          0.1440     1.2480    -1.5080 o          1 7NV      -0.624100
     28 C3          -1.3470    -2.6180     0.4830 ca         1 7NV      -0.109500
     29 N25         -1.2730     1.6770     0.1960 ns         1 7NV      -0.524900
     30 N26          0.9620     2.2640     0.3540 n          1 7NV      -0.415800
     31 H15         -1.4590    -4.3660    -0.7610 ha         1 7NV       0.107000
     32 H16         -2.3630    -3.1270    -2.7050 ha         1 7NV       0.109000
     33 H3          -0.9510    -3.1510     1.3380 ha         1 7NV       0.109000
     34 H17         -2.7400    -0.6980    -2.5550 ha         1 7NV       0.111500
     35 H23          1.1150     0.0330     1.3150 ha         1 7NV       0.089000
     36 H24          1.9550    -2.1990     1.8940 ha         1 7NV       0.103000
     37 H61C        -8.7730     0.9010     0.5920 hc         1 7NV       0.040200
     38 H62C        -8.2070    -0.5510     1.3870 hc         1 7NV       0.040200
     39 H71C       -10.3140    -1.0240     0.1600 hc         1 7NV       0.032033
     40 H72C        -9.5970    -0.4590    -1.3450 hc         1 7NV       0.032033
     41 H73C        -8.9940    -1.9250    -0.5800 hc         1 7NV       0.032033
     42 H51C        -6.6100    -0.9730    -0.4830 hc         1 7NV       0.044700
     43 H52C        -7.1820     0.4720    -1.3010 hc         1 7NV       0.044700
     44 H91C         0.5580     2.0110     2.4340 h1         1 7NV       0.032033
     45 H92C         1.6150     3.3470     1.9950 h1         1 7NV       0.032033
     46 H93C        -0.1020     3.4850     1.6990 h1         1 7NV       0.032033
     47 H13         -2.5390     1.3320    -1.4220 h1         1 7NV       0.075700
     48 H25         -1.4040     1.9050     1.1690 hn         1 7NV       0.330500
     49 H41C        -6.4190     1.8690     0.6240 h1         1 7NV       0.050700
     50 H42C        -5.8930     0.4230     1.4700 h1         1 7NV       0.050700
     51 H19         -1.3440    -0.7330     1.4930 ha         1 7NV       0.111500
     52 H211         2.9460     2.8150     0.3790 h1         1 7NV       0.092700
     53 H212         2.3960     2.2030    -1.1500 h1         1 7NV       0.092700
     54 HA          -4.7290     0.7420    -1.1870 hn         1 7NV       0.317500
     55 H271         6.5700    -3.1430     0.9250 h2         1 7NV       0.040700
     56 H272         5.6330    -3.5460    -0.5500 h2         1 7NV       0.040700
     57 C12         -0.0400     1.7000    -0.3830 c          1 7NV       0.649100
     58 C31          5.0930     1.2410    -0.9520 c          1 7NV       0.722600
@<TRIPOS>BOND
     1     1     2 ar  
     2     1    28 ar  
     3     1    31 1   
     4     2     3 ar  
     5     2    32 1   
     6     3    12 ar  
     7     3    34 1   
     8     4     6 ar  
     9     4    13 ar  
    10     4    35 1   
    11     5     7 1   
    12     5    11 1   
    13     5    37 1   
    14     5    38 1   
    15     6    14 ar  
    16     6    36 1   
    17     7    39 1   
    18     7    40 1   
    19     7    41 1   
    20     8    30 1   
    21     8    44 1   
    22     8    45 1   
    23     8    46 1   
    24     9    12 1   
    25     9    16 1   
    26     9    29 1   
    27     9    47 1   
    28    10    13 ar  
    29    10    15 ar  
    30    10    58 1   
    31    11    18 1   
    32    11    42 1   
    33    11    43 1   
    34    12    19 ar  
    35    13    20 1   
    36    14    15 ar  
    37    14    25 1   
    38    15    26 1   
    39    16    21 1   
    40    16    23 2   
    41    17    25 1   
    42    17    26 1   
    43    17    55 1   
    44    17    56 1   
    45    18    21 1   
    46    18    49 1   
    47    18    50 1   
    48    19    28 ar  
    49    19    51 1   
    50    20    30 1   
    51    20    52 1   
    52    20    53 1   
    53    21    54 1   
    54    22    58 1   
    55    24    58 1   
    56    27    57 2   
    57    28    33 1   
    58    29    48 1   
    59    29    57 1   
    60    30    57 1   
@<TRIPOS>SUBSTRUCTURE
     1 7NV         1 TEMP              0 ****  ****    0 ROOT
