@<TRIPOS>MOLECULE
7NW
   13    13     1     0     0
SMALL
abcg2


@<TRIPOS>ATOM
      1 O1           2.7740     0.9230     0.0070 o          1 7NW      -0.703500
      2 C4           2.0940    -0.1170    -0.0790 c          1 7NW       0.630500
      3 C1           0.5920     0.0750    -0.0010 cc         1 7NW       0.241500
      4 N3          -0.2680    -0.9960    -0.0360 nc         1 7NW      -0.596000
      5 C2          -1.5040    -0.6320     0.0420 cd         1 7NW       0.414700
      6 C3          -2.6580    -1.5710     0.0370 c3         1 7NW      -0.114400
      7 S1          -1.7190     1.0850     0.1600 ss         1 7NW      -0.223400
      8 C5          -0.0200     1.2840     0.1080 cd         1 7NW      -0.223000
      9 OXT          2.4990    -1.2870    -0.1690 o          1 7NW      -0.703500
     10 H1          -3.2160    -1.5260     0.9730 hc         1 7NW       0.038700
     11 H2          -3.3560    -1.3440    -0.7680 hc         1 7NW       0.038700
     12 H3          -2.2970    -2.5880    -0.0990 hc         1 7NW       0.038700
     13 H4           0.4410     2.2570     0.1610 h4         1 7NW       0.162000
@<TRIPOS>BOND
     1     1     2 1   
     2     2     3 1   
     3     2     9 1   
     4     3     4 1   
     5     3     8 2   
     6     4     5 2   
     7     5     6 1   
     8     5     7 1   
     9     6    10 1   
    10     6    11 1   
    11     6    12 1   
    12     7     8 1   
    13     8    13 1   
@<TRIPOS>SUBSTRUCTURE
     1 7NW         1 TEMP              0 ****  ****    0 ROOT
