@<TRIPOS>MOLECULE
7NW
   13    13     1     0     0
SMALL
No Charge or Current Charge


@<TRIPOS>ATOM
      1 O1           2.8010     0.9260     0.0430 o          1 7NW      -0.703500
      2 C4           2.1160    -0.0900     0.1040 c          1 7NW       0.630500
      3 C1           0.5980     0.0280     0.0360 cc         1 7NW       0.241500
      4 N3          -0.2810    -1.0460     0.0940 nc         1 7NW      -0.596000
      5 C2          -1.5310    -0.6200     0.0110 cd         1 7NW       0.414700
      6 C3          -2.6900    -1.5750     0.0480 c3         1 7NW      -0.114400
      7 S1          -1.7600     1.1160    -0.1450 ss         1 7NW      -0.223400
      8 C5          -0.0110     1.2620    -0.0910 cd         1 7NW      -0.223000
      9 OXT          2.6310    -1.1990     0.2170 o          1 7NW      -0.703500
     10 H1          -2.7010    -2.1410     0.9870 hc         1 7NW       0.038700
     11 H2          -3.6440    -1.0420    -0.0330 hc         1 7NW       0.038700
     12 H3          -2.6340    -2.2910    -0.7800 hc         1 7NW       0.038700
     13 H4           0.4680     2.2320    -0.1560 h4         1 7NW       0.162000
@<TRIPOS>BOND
     1     1     2 1   
     2     2     3 1   
     3     2     9 1   
     4     3     4 1   
     5     3     8 2   
     6     4     5 2   
     7     5     6 1   
     8     5     7 1   
     9     6    10 1   
    10     6    11 1   
    11     6    12 1   
    12     7     8 1   
    13     8    13 1   
@<TRIPOS>SUBSTRUCTURE
     1 7NW         1 TEMP              0 ****  ****    0 ROOT
