@<TRIPOS>MOLECULE
7NX
   24    24     1     0     0
SMALL
No Charge or Current Charge


@<TRIPOS>ATOM
      1 C8           2.9570     0.0470    -0.0430 c          1 7NX       0.823100
      2 O8           3.3050    -0.9840     0.5100 o          1 7NX      -0.725000
      3 O7           1.6380     0.2720    -0.3050 os         1 7NX      -0.546100
      4 OXT          3.7390     0.9150    -0.3880 o          1 7NX      -0.725000
      5 C7           0.6710    -0.7240     0.0830 c3         1 7NX       0.207600
      6 C1          -0.7580    -0.2470    -0.3120 c6         1 7NX      -0.067700
      7 C2          -1.8050    -1.3690    -0.0630 c6         1 7NX      -0.069400
      8 C3          -3.2330    -0.9160    -0.4600 c6         1 7NX      -0.073400
      9 C4          -3.6360     0.3800     0.2830 c6         1 7NX      -0.071400
     10 C5          -2.6030     1.5070     0.0400 c6         1 7NX      -0.073400
     11 C6          -1.1740     1.0550     0.4350 c6         1 7NX      -0.069400
     12 H1           0.8780    -1.6740    -0.4270 h1         1 7NX       0.012700
     13 H3           0.7020    -0.8970     1.1680 h1         1 7NX       0.012700
     14 H4          -0.7260    -0.0390    -1.3910 hc         1 7NX       0.046700
     15 H5          -1.5360    -2.2670    -0.6350 hc         1 7NX       0.041700
     16 H6          -1.7950    -1.6610     0.9970 hc         1 7NX       0.041700
     17 H7          -3.2800    -0.7500    -1.5460 hc         1 7NX       0.025950
     18 H8          -3.9530    -1.7140    -0.2350 hc         1 7NX       0.025950
     19 H9          -4.6300     0.7080    -0.0510 hc         1 7NX       0.023700
     20 H10         -3.7180     0.1790     1.3600 hc         1 7NX       0.023700
     21 H11         -2.6170     1.7990    -1.0190 hc         1 7NX       0.025950
     22 H12         -2.8830     2.4000     0.6140 hc         1 7NX       0.025950
     23 H13         -1.1290     0.8920     1.5210 hc         1 7NX       0.041700
     24 H14         -0.4660     1.8640     0.2130 hc         1 7NX       0.041700
@<TRIPOS>BOND
     1     1     2 1   
     2     1     3 1   
     3     1     4 1   
     4     3     5 1   
     5     5     6 1   
     6     5    12 1   
     7     5    13 1   
     8     6     7 1   
     9     6    11 1   
    10     6    14 1   
    11     7     8 1   
    12     7    15 1   
    13     7    16 1   
    14     8     9 1   
    15     8    17 1   
    16     8    18 1   
    17     9    10 1   
    18     9    19 1   
    19     9    20 1   
    20    10    11 1   
    21    10    21 1   
    22    10    22 1   
    23    11    23 1   
    24    11    24 1   
@<TRIPOS>SUBSTRUCTURE
     1 7NX         1 TEMP              0 ****  ****    0 ROOT
