@<TRIPOS>MOLECULE
7NX
   24    24     1     0     0
SMALL
bcc


@<TRIPOS>ATOM
      1 C8           2.9160     0.0240    -0.0190 c          1 7NX       0.503100
      2 O8           3.1970    -1.0390     0.5500 o          1 7NX      -0.565000
      3 O7           1.5800     0.2720    -0.2980 os         1 7NX      -0.522900
      4 OXT          3.6610     0.9370    -0.3960 o          1 7NX      -0.565000
      5 C7           0.6310    -0.7050     0.0700 c3         1 7NX       0.184400
      6 C1          -0.7570    -0.2260    -0.3230 c6         1 7NX      -0.067700
      7 C2          -1.7770    -1.3370    -0.0700 c6         1 7NX      -0.069400
      8 C3          -3.1920    -0.9070    -0.4440 c6         1 7NX      -0.073400
      9 C4          -3.5960     0.3710     0.2830 c6         1 7NX      -0.071400
     10 C5          -2.5840     1.4850     0.0410 c6         1 7NX      -0.073400
     11 C6          -1.1700     1.0490     0.4120 c6         1 7NX      -0.069400
     12 H1           0.8400    -1.6610    -0.4270 h1         1 7NX       0.012700
     13 H3           0.6540    -0.8970     1.1500 h1         1 7NX       0.012700
     14 H4          -0.7560    -0.0170    -1.4020 hc         1 7NX       0.046700
     15 H5          -1.4960    -2.2340    -0.6300 hc         1 7NX       0.041700
     16 H6          -1.7510    -1.6140     0.9910 hc         1 7NX       0.041700
     17 H7          -3.2450    -0.7390    -1.5260 hc         1 7NX       0.025950
     18 H8          -3.8990    -1.7100    -0.2230 hc         1 7NX       0.025950
     19 H9          -4.5930     0.6870    -0.0340 hc         1 7NX       0.023700
     20 H10         -3.6630     0.1700     1.3580 hc         1 7NX       0.023700
     21 H11         -2.6080     1.7720    -1.0160 hc         1 7NX       0.025950
     22 H12         -2.8620     2.3770     0.6070 hc         1 7NX       0.025950
     23 H13         -1.1190     0.8650     1.4930 hc         1 7NX       0.041700
     24 H14         -0.4630     1.8550     0.2030 hc         1 7NX       0.041700
@<TRIPOS>BOND
     1     1     2 1   
     2     1     3 1   
     3     1     4 1   
     4     3     5 1   
     5     5     6 1   
     6     5    12 1   
     7     5    13 1   
     8     6     7 1   
     9     6    11 1   
    10     6    14 1   
    11     7     8 1   
    12     7    15 1   
    13     7    16 1   
    14     8     9 1   
    15     8    17 1   
    16     8    18 1   
    17     9    10 1   
    18     9    19 1   
    19     9    20 1   
    20    10    11 1   
    21    10    21 1   
    22    10    22 1   
    23    11    23 1   
    24    11    24 1   
@<TRIPOS>SUBSTRUCTURE
     1 7NX         1 TEMP              0 ****  ****    0 ROOT
