@<TRIPOS>MOLECULE
7NZ
   73    80     1     0     0
SMALL
No Charge or Current Charge


@<TRIPOS>ATOM
      1 C10          4.1780     0.7740   -22.9170 c6         1 7NZ       0.185800
      2 C13          2.2440     3.0120   -24.2120 ca         1 7NZ      -0.263000
      3 C15          0.1450     4.1660   -24.4740 ca         1 7NZ       0.127000
      4 C17         -1.8340     2.8530   -25.4150 cp         1 7NZ      -0.099500
      5 C20         -4.4930     2.6980   -26.4050 ca         1 7NZ      -0.194000
      6 C21         -3.4110     2.4520   -27.2590 ca         1 7NZ       0.134100
      7 C22         -2.1000     2.5260   -26.7690 ca         1 7NZ      -0.086000
      8 C24         -5.1680     3.5260   -22.8470 ca         1 7NZ      -0.097000
      9 C26         -2.7610     3.3580   -23.1700 ca         1 7NZ      -0.082000
     10 C28          7.0060     9.4750   -23.0990 c5         1 7NZ       0.136800
     11 C01          7.7270     9.3090   -21.7260 c5         1 7NZ       0.153300
     12 C02          7.1540     7.9470   -21.2610 c5         1 7NZ      -0.118400
     13 C03          5.6800     7.9040   -21.8200 c5         1 7NZ       0.172200
     14 C04          5.3130     6.4680   -22.3320 c3         1 7NZ       0.198600
     15 C05          3.3860     5.2620   -23.2710 ca         1 7NZ       0.418300
     16 C06          3.5930     3.0400   -23.8270 ca         1 7NZ       0.467900
     17 C07          5.8310     1.9910   -24.3860 c6         1 7NZ       0.185800
     18 C08          6.9210     1.5500   -23.3390 c5         1 7NZ       0.128000
     19 C09          5.4070     0.4650   -21.9880 c5         1 7NZ       0.128000
     20 C11          5.8660     1.6830   -21.1290 c5         1 7NZ      -0.069900
     21 C12          6.9320     2.3930   -22.0300 c5         1 7NZ      -0.069900
     22 C14          1.4980     4.2010   -24.0860 ca         1 7NZ       0.080000
     23 C16         -0.4100     2.9510   -24.9610 cp         1 7NZ       0.379500
     24 C18         -2.9430     3.0800   -24.5450 ca         1 7NZ      -0.040000
     25 C19         -4.2660     3.0070   -25.0520 ca         1 7NZ       0.000000
     26 C23         -5.3670     3.2350   -24.2050 ca         1 7NZ      -0.110000
     27 C25         -3.8660     3.5820   -22.3300 ca         1 7NZ      -0.115000
     28 C27          1.6330     1.8600   -24.7350 ca         1 7NZ       0.386900
     29 C29          4.7630    10.0960   -22.3410 c5         1 7NZ       0.164800
     30 C30          3.7470     9.3320   -21.4710 c5         1 7NZ      -0.084400
     31 C31          4.7320     8.4350   -20.6810 c5         1 7NZ      -0.075400
     32 N01          4.1590     4.1620   -23.3620 nb         1 7NZ      -0.367000
     33 N02          4.4210     1.9030   -23.8730 nh         1 7NZ      -0.779300
     34 N03          6.6130     0.1940   -22.8150 n7         1 7NZ      -0.831400
     35 N04          0.3360     1.8310   -25.1080 nb         1 7NZ      -0.667000
     36 N05          2.0830     5.3210   -23.6130 nb         1 7NZ      -0.214000
     37 N06          5.6110     8.9830   -22.8700 n3         1 7NZ      -0.709600
     38 O01          3.9410     6.4240   -22.7860 os         1 7NZ      -0.423300
     39 O02         -3.6290     2.1450   -28.5690 oh         1 7NZ      -0.536100
     40 H1           3.3110     1.0010   -22.2790 h1         1 7NZ       0.067200
     41 H2           3.9160    -0.1350   -23.4790 h1         1 7NZ       0.067200
     42 H3          -5.5100     2.6430   -26.7850 ha         1 7NZ       0.115000
     43 H4          -1.2720     2.3400   -27.4490 ha         1 7NZ       0.139000
     44 H5          -6.0220     3.6990   -22.1960 ha         1 7NZ       0.112000
     45 H6          -1.7680     3.3950   -22.7310 ha         1 7NZ       0.115000
     46 H7           7.5080     8.8510   -23.8520 h1         1 7NZ       0.065700
     47 H8           7.0430    10.5110   -23.4660 h1         1 7NZ       0.065700
     48 H9           8.8180     9.2770   -21.8420 h1         1 7NZ       0.067700
     49 H10          7.2180     7.8110   -20.1750 hc         1 7NZ       0.063700
     50 H11          7.7520     7.1390   -21.6980 hc         1 7NZ       0.063700
     51 H12          5.4650     5.7550   -21.5110 h1         1 7NZ       0.049700
     52 H13          5.9970     6.1990   -23.1480 h1         1 7NZ       0.049700
     53 H14          5.9280     1.3590   -25.2810 h1         1 7NZ       0.067200
     54 H15          6.0620     3.0140   -24.7200 h1         1 7NZ       0.067200
     55 H16          7.9000     1.5810   -23.8400 h1         1 7NZ       0.082200
     56 H17          5.1440    -0.3960   -21.3560 h1         1 7NZ       0.082200
     57 H18          5.0310     2.3440   -20.8710 hc         1 7NZ       0.055700
     58 H19          6.3150     1.3520   -20.1850 hc         1 7NZ       0.055700
     59 H20          7.9200     2.3630   -21.5570 hc         1 7NZ       0.055700
     60 H21          6.6970     3.4470   -22.2120 hc         1 7NZ       0.055700
     61 H22         -6.3800     3.1820   -24.5980 ha         1 7NZ       0.111000
     62 H23         -3.7100     3.7980   -21.2750 ha         1 7NZ       0.114000
     63 H24          2.1840     0.9310   -24.8740 h4         1 7NZ       0.021100
     64 H25          5.3160    10.8220   -21.7320 h1         1 7NZ       0.046200
     65 H26          4.2730    10.6550   -23.1500 h1         1 7NZ       0.046200
     66 H27          3.1670     9.9980   -20.8230 hc         1 7NZ       0.062700
     67 H28          3.0390     8.7560   -22.0770 hc         1 7NZ       0.062700
     68 H29          5.2590     9.0260   -19.9220 hc         1 7NZ       0.052200
     69 H30          4.2190     7.6250   -20.1490 hc         1 7NZ       0.052200
     70 H31          6.3720    -0.4350   -23.5900 hn         1 7NZ       0.408000
     71 H34         -4.5970     2.1390   -28.7290 ho         1 7NZ       0.463000
     72 F02         -0.6100     5.2910   -24.3960 f          1 7NZ      -0.143000
     73 F01          7.4350    10.3320   -20.8170 f          1 7NZ      -0.277000
@<TRIPOS>BOND
     1     1    19 1   
     2     1    33 1   
     3     1    40 1   
     4     1    41 1   
     5     2    16 ar  
     6     2    22 ar  
     7     2    28 ar  
     8     3    22 ar  
     9     3    23 ar  
    10     3    72 1   
    11     4     7 ar  
    12     4    23 1   
    13     4    24 ar  
    14     5     6 ar  
    15     5    25 ar  
    16     5    42 1   
    17     6     7 ar  
    18     6    39 1   
    19     7    43 1   
    20     8    26 ar  
    21     8    27 ar  
    22     8    44 1   
    23     9    24 ar  
    24     9    27 ar  
    25     9    45 1   
    26    10    11 1   
    27    10    37 1   
    28    10    46 1   
    29    10    47 1   
    30    11    12 1   
    31    11    48 1   
    32    11    73 1   
    33    12    13 1   
    34    12    49 1   
    35    12    50 1   
    36    13    14 1   
    37    13    31 1   
    38    13    37 1   
    39    14    38 1   
    40    14    51 1   
    41    14    52 1   
    42    15    32 ar  
    43    15    36 ar  
    44    15    38 1   
    45    16    32 ar  
    46    16    33 1   
    47    17    18 1   
    48    17    33 1   
    49    17    53 1   
    50    17    54 1   
    51    18    21 1   
    52    18    34 1   
    53    18    55 1   
    54    19    20 1   
    55    19    34 1   
    56    19    56 1   
    57    20    21 1   
    58    20    57 1   
    59    20    58 1   
    60    21    59 1   
    61    21    60 1   
    62    22    36 ar  
    63    23    35 ar  
    64    24    25 ar  
    65    25    26 ar  
    66    26    61 1   
    67    27    62 1   
    68    28    35 ar  
    69    28    63 1   
    70    29    30 1   
    71    29    37 1   
    72    29    64 1   
    73    29    65 1   
    74    30    31 1   
    75    30    66 1   
    76    30    67 1   
    77    31    68 1   
    78    31    69 1   
    79    34    70 1   
    80    39    71 1   
@<TRIPOS>SUBSTRUCTURE
     1 7NZ         1 TEMP              0 ****  ****    0 ROOT
