@<TRIPOS>MOLECULE
7NZ
   73    80     1     0     0
SMALL
abcg2


@<TRIPOS>ATOM
      1 C10          4.2450     0.7420   -23.6850 c6         1 7NZ       0.185800
      2 C13          2.4800     3.1320   -24.2130 ca         1 7NZ      -0.263000
      3 C15          0.3210     4.1770   -24.2240 ca         1 7NZ       0.127000
      4 C17         -1.6190     3.0430   -25.3250 cp         1 7NZ      -0.099500
      5 C20         -4.2890     2.9260   -26.1930 ca         1 7NZ      -0.194000
      6 C21         -3.2600     2.9090   -27.1010 ca         1 7NZ       0.134100
      7 C22         -1.9210     2.9630   -26.6620 ca         1 7NZ      -0.086000
      8 C24         -4.7900     2.9940   -22.5080 ca         1 7NZ      -0.097000
      9 C26         -2.4190     3.0410   -22.9530 ca         1 7NZ      -0.082000
     10 C28          6.7210     9.5410   -23.6210 c5         1 7NZ       0.136800
     11 C01          7.7210     9.3930   -22.4860 c5         1 7NZ       0.153300
     12 C02          7.2690     8.1280   -21.7830 c5         1 7NZ      -0.118400
     13 C03          5.7350     8.0560   -22.0260 c5         1 7NZ       0.172200
     14 C04          5.4120     6.6450   -22.4990 c3         1 7NZ       0.198600
     15 C05          3.4950     5.3720   -23.1440 ca         1 7NZ       0.418300
     16 C06          3.8600     3.1950   -23.7780 ca         1 7NZ       0.467900
     17 C07          6.1450     2.3170   -23.6340 c6         1 7NZ       0.185800
     18 C08          6.6680     1.5330   -22.4250 c5         1 7NZ       0.128000
     19 C09          4.9180     0.0680   -22.4770 c5         1 7NZ       0.128000
     20 C11          4.6810     0.8770   -21.1890 c5         1 7NZ      -0.069900
     21 C12          5.8740     1.8700   -21.1510 c5         1 7NZ      -0.069900
     22 C14          1.6840     4.2580   -23.8720 ca         1 7NZ       0.080000
     23 C16         -0.1880     3.1190   -24.9370 cp         1 7NZ       0.379500
     24 C18         -2.6620     3.0350   -24.3490 ca         1 7NZ      -0.040000
     25 C19         -4.0150     2.9800   -24.8070 ca         1 7NZ       0.000000
     26 C23         -5.0620     2.9700   -23.8510 ca         1 7NZ      -0.110000
     27 C25         -3.4540     3.0220   -22.0540 ca         1 7NZ      -0.115000
     28 C27          1.9000     2.1430   -25.0270 ca         1 7NZ       0.386900
     29 C29          4.5360    10.0860   -22.5690 c5         1 7NZ       0.164800
     30 C30          3.7900     9.3870   -21.4370 c5         1 7NZ      -0.084400
     31 C31          4.8750     8.4980   -20.8240 c5         1 7NZ      -0.075400
     32 N01          4.3410     4.3650   -23.3480 nb         1 7NZ      -0.367000
     33 N02          4.6920     2.1380   -23.7900 nh         1 7NZ      -0.779300
     34 N03          6.3850     0.0950   -22.5810 n7         1 7NZ      -0.831400
     35 N04          0.6310     2.1300   -25.3820 nb         1 7NZ      -0.667000
     36 N05          2.1790     5.3740   -23.2960 nb         1 7NZ      -0.214000
     37 N06          5.4420     9.0520   -23.1010 n3         1 7NZ      -0.709600
     38 O01          3.9930     6.5300   -22.7020 os         1 7NZ      -0.423300
     39 O02         -3.4500     2.8490   -28.4500 oh         1 7NZ      -0.536100
     40 H1           3.1710     0.7160   -23.5420 h1         1 7NZ       0.067200
     41 H2           4.4910     0.1990   -24.6020 h1         1 7NZ       0.067200
     42 H3          -5.3190     2.8890   -26.5320 ha         1 7NZ       0.115000
     43 H4          -1.1300     2.9570   -27.4010 ha         1 7NZ       0.139000
     44 H5          -5.6010     2.9840   -21.7900 ha         1 7NZ       0.112000
     45 H6          -1.3990     3.0520   -22.5930 ha         1 7NZ       0.115000
     46 H7           7.0630     8.9210   -24.4570 h1         1 7NZ       0.065700
     47 H8           6.6400    10.5680   -23.9780 h1         1 7NZ       0.065700
     48 H9           8.7630     9.3850   -22.8020 h1         1 7NZ       0.067700
     49 H10          7.5300     8.1330   -20.7270 hc         1 7NZ       0.063700
     50 H11          7.7760     7.2790   -22.2470 hc         1 7NZ       0.063700
     51 H12          5.7280     5.9110   -21.7550 h1         1 7NZ       0.049700
     52 H13          5.9280     6.4380   -23.4370 h1         1 7NZ       0.049700
     53 H14          6.6250     1.9380   -24.5420 h1         1 7NZ       0.067200
     54 H15          6.3540     3.3760   -23.5410 h1         1 7NZ       0.067200
     55 H16          7.7390     1.7120   -22.3260 h1         1 7NZ       0.082200
     56 H17          4.5500    -0.9570   -22.4140 h1         1 7NZ       0.082200
     57 H18          3.7160     1.3840   -21.2060 hc         1 7NZ       0.055700
     58 H19          4.6950     0.2140   -20.3250 hc         1 7NZ       0.055700
     59 H20          6.4920     1.7020   -20.2700 hc         1 7NZ       0.055700
     60 H21          5.5510     2.9100   -21.1440 hc         1 7NZ       0.055700
     61 H22         -6.0850     2.9360   -24.2060 ha         1 7NZ       0.111000
     62 H23         -3.2480     3.0250   -20.9910 ha         1 7NZ       0.114000
     63 H24          2.5090     1.3480   -25.4330 h4         1 7NZ       0.021100
     64 H25          5.0930    10.9460   -22.1780 h1         1 7NZ       0.046200
     65 H26          3.8680    10.4500   -23.3530 h1         1 7NZ       0.046200
     66 H27          3.3700    10.0960   -20.7240 hc         1 7NZ       0.062700
     67 H28          2.9780     8.7780   -21.8360 hc         1 7NZ       0.062700
     68 H29          5.4880     9.0820   -20.1370 hc         1 7NZ       0.052200
     69 H30          4.4730     7.6480   -20.2710 hc         1 7NZ       0.052200
     70 H31          6.6980    -0.2450   -23.4870 hn         1 7NZ       0.408000
     71 H34         -4.3960     2.8220   -28.6490 ho         1 7NZ       0.463000
     72 F02         -0.4760     5.2140   -23.8940 f          1 7NZ      -0.143000
     73 F01          7.5900    10.4980   -21.5970 f          1 7NZ      -0.277000
@<TRIPOS>BOND
     1     1    19 1   
     2     1    33 1   
     3     1    40 1   
     4     1    41 1   
     5     2    16 ar  
     6     2    22 ar  
     7     2    28 ar  
     8     3    22 ar  
     9     3    23 ar  
    10     3    72 1   
    11     4     7 ar  
    12     4    23 1   
    13     4    24 ar  
    14     5     6 ar  
    15     5    25 ar  
    16     5    42 1   
    17     6     7 ar  
    18     6    39 1   
    19     7    43 1   
    20     8    26 ar  
    21     8    27 ar  
    22     8    44 1   
    23     9    24 ar  
    24     9    27 ar  
    25     9    45 1   
    26    10    11 1   
    27    10    37 1   
    28    10    46 1   
    29    10    47 1   
    30    11    12 1   
    31    11    48 1   
    32    11    73 1   
    33    12    13 1   
    34    12    49 1   
    35    12    50 1   
    36    13    14 1   
    37    13    31 1   
    38    13    37 1   
    39    14    38 1   
    40    14    51 1   
    41    14    52 1   
    42    15    32 ar  
    43    15    36 ar  
    44    15    38 1   
    45    16    32 ar  
    46    16    33 1   
    47    17    18 1   
    48    17    33 1   
    49    17    53 1   
    50    17    54 1   
    51    18    21 1   
    52    18    34 1   
    53    18    55 1   
    54    19    20 1   
    55    19    34 1   
    56    19    56 1   
    57    20    21 1   
    58    20    57 1   
    59    20    58 1   
    60    21    59 1   
    61    21    60 1   
    62    22    36 ar  
    63    23    35 ar  
    64    24    25 ar  
    65    25    26 ar  
    66    26    61 1   
    67    27    62 1   
    68    28    35 ar  
    69    28    63 1   
    70    29    30 1   
    71    29    37 1   
    72    29    64 1   
    73    29    65 1   
    74    30    31 1   
    75    30    66 1   
    76    30    67 1   
    77    31    68 1   
    78    31    69 1   
    79    34    70 1   
    80    39    71 1   
@<TRIPOS>SUBSTRUCTURE
     1 7NZ         1 TEMP              0 ****  ****    0 ROOT
