@<TRIPOS>MOLECULE
7O0
   42    44     1     0     0
SMALL
abcg2


@<TRIPOS>ATOM
      1 C2           4.1520    -0.5750    -0.0440 ce         1 7O0      -0.237200
      2 C5           0.9040     1.3210     0.0640 cp         1 7O0      -0.144000
      3 C6          -0.4370     1.2060    -0.5540 cp         1 7O0      -0.020000
      4 C7          -1.5790     1.0850     0.2420 ca         1 7O0      -0.116000
      5 C8          -2.8440     0.9600    -0.3210 ca         1 7O0      -0.086300
      6 C11         -6.0070    -0.7420     0.0700 ca         1 7O0      -0.104000
      7 C16         -2.9630     0.9550    -1.7090 ca         1 7O0      -0.109000
      8 C15         -3.9130    -1.7150     0.7090 ca         1 7O0      -0.104000
      9 C14         -4.4720    -2.9810     0.6210 ca         1 7O0      -0.111000
     10 C13         -5.8030    -3.1340     0.2510 ca         1 7O0      -0.116000
     11 C12         -6.5700    -2.0100    -0.0240 ca         1 7O0      -0.111000
     12 C17         -1.8380     1.0710    -2.5100 ca         1 7O0      -0.113000
     13 C            6.3360    -1.8010    -0.0350 c          1 7O0       0.695200
     14 O            5.9140    -2.6260    -0.8700 o          1 7O0      -0.723500
     15 C4           1.8970     0.3930    -0.2360 ca         1 7O0      -0.074000
     16 O1           7.4690    -1.7890     0.4920 o          1 7O0      -0.723500
     17 C1           5.4050    -0.6950     0.4030 cf         1 7O0      -0.215200
     18 C3           3.1750     0.4500     0.3180 ca         1 7O0      -0.030800
     19 C21          3.4450     1.5010     1.2020 ca         1 7O0      -0.080000
     20 C20          2.4840     2.4420     1.5070 ca         1 7O0      -0.151000
     21 C19          1.2100     2.3640     0.9450 ca         1 7O0       0.119100
     22 O2           0.3330     3.3310     1.2780 oh         1 7O0      -0.553100
     23 C18         -0.5790     1.1970    -1.9390 ca         1 7O0      -0.095000
     24 C9          -4.0650     0.7980     0.5460 c3         1 7O0       0.015200
     25 C10         -4.6750    -0.5790     0.4370 ca         1 7O0      -0.074300
     26 H2           3.8010    -1.3160    -0.7580 ha         1 7O0       0.190000
     27 H4          -1.4810     1.0530     1.3220 ha         1 7O0       0.118000
     28 H12         -3.9410     0.8510    -2.1640 ha         1 7O0       0.108000
     29 H10         -3.8670    -3.8520     0.8380 ha         1 7O0       0.109500
     30 H9          -6.2380    -4.1220     0.1770 ha         1 7O0       0.107000
     31 H8          -7.6070    -2.1190    -0.3120 ha         1 7O0       0.109500
     32 H13         -1.9400     1.0690    -3.5880 ha         1 7O0       0.109000
     33 H3           1.6580    -0.4140    -0.9200 ha         1 7O0       0.116000
     34 H1           5.8080     0.0160     1.1190 ha         1 7O0       0.142000
     35 H17          4.4230     1.5940     1.6580 ha         1 7O0       0.121000
     36 H16          2.7150     3.2580     2.1810 ha         1 7O0       0.114000
     37 H15         -0.4830     3.2490     0.7700 ho         1 7O0       0.461000
     38 H14          0.2950     1.2970    -2.5710 ha         1 7O0       0.125000
     39 H6          -3.8000     1.0000     1.5870 hc         1 7O0       0.050700
     40 H5          -4.8130     1.5450     0.2690 hc         1 7O0       0.050700
     41 H7          -6.6130     0.1310    -0.1440 ha         1 7O0       0.115000
     42 H11         -2.8720    -1.6090     0.9910 ha         1 7O0       0.115000
@<TRIPOS>BOND
     1     1    17 2   
     2     1    18 1   
     3     1    26 1   
     4     2     3 1   
     5     2    15 ar  
     6     2    21 ar  
     7     3     4 ar  
     8     3    23 ar  
     9     4     5 ar  
    10     4    27 1   
    11     5     7 ar  
    12     5    24 1   
    13     6    11 ar  
    14     6    25 ar  
    15     6    41 1   
    16     7    12 ar  
    17     7    28 1   
    18     8     9 ar  
    19     8    25 ar  
    20     8    42 1   
    21     9    10 ar  
    22     9    29 1   
    23    10    11 ar  
    24    10    30 1   
    25    11    31 1   
    26    12    23 ar  
    27    12    32 1   
    28    13    14 1   
    29    13    16 1   
    30    13    17 1   
    31    15    18 ar  
    32    15    33 1   
    33    17    34 1   
    34    18    19 ar  
    35    19    20 ar  
    36    19    35 1   
    37    20    21 ar  
    38    20    36 1   
    39    21    22 1   
    40    22    37 1   
    41    23    38 1   
    42    24    25 1   
    43    24    39 1   
    44    24    40 1   
@<TRIPOS>SUBSTRUCTURE
     1 7O0         1 TEMP              0 ****  ****    0 ROOT
