@<TRIPOS>MOLECULE
7O0
   42    44     1     0     0
SMALL
No Charge or Current Charge


@<TRIPOS>ATOM
      1 C2           4.0770    -0.6320    -0.2930 ce         1 7O0      -0.237200
      2 C5           0.7800     1.2590     0.1130 cp         1 7O0      -0.144000
      3 C6          -0.5440     1.3120    -0.5790 cp         1 7O0      -0.020000
      4 C7          -1.7550     1.1420     0.1360 ca         1 7O0      -0.116000
      5 C8          -3.0020     1.1870    -0.5160 ca         1 7O0      -0.086300
      6 C11         -5.3840    -1.1390    -0.5750 ca         1 7O0      -0.104000
      7 C16         -3.0460     1.3950    -1.9080 ca         1 7O0      -0.109000
      8 C15         -4.2090    -1.2050     1.5550 ca         1 7O0      -0.104000
      9 C14         -4.5270    -2.5680     1.6880 ca         1 7O0      -0.111000
     10 C13         -5.2740    -3.2170     0.6900 ca         1 7O0      -0.116000
     11 C12         -5.7010    -2.5020    -0.4410 ca         1 7O0      -0.111000
     12 C17         -1.8570     1.5540    -2.6370 ca         1 7O0      -0.113000
     13 C            6.3100    -1.8440    -0.4710 c          1 7O0       0.695200
     14 O            5.9630    -2.4780    -1.4560 o          1 7O0      -0.723500
     15 C4           1.7920     0.3930    -0.3700 ca         1 7O0      -0.074000
     16 O1           7.4120    -1.9520     0.0450 o          1 7O0      -0.723500
     17 C1           5.3500    -0.8820     0.1490 cf         1 7O0      -0.215200
     18 C3           3.0520     0.3040     0.2560 ca         1 7O0      -0.030800
     19 C21          3.3080     1.1030     1.3880 ca         1 7O0      -0.080000
     20 C20          2.3220     1.9770     1.8760 ca         1 7O0      -0.151000
     21 C19          1.0710     2.0600     1.2460 ca         1 7O0       0.119100
     22 O2           0.1580     2.9490     1.7270 oh         1 7O0      -0.553100
     23 C18         -0.6170     1.5090    -1.9780 ca         1 7O0      -0.095000
     24 C9          -4.2890     0.9930     0.2750 c3         1 7O0       0.015200
     25 C10         -4.6370    -0.4820     0.4230 ca         1 7O0      -0.074300
     26 H2           3.7390    -1.1850    -1.1720 ha         1 7O0       0.190000
     27 H4          -1.7210     0.9540     1.2070 ha         1 7O0       0.118000
     28 H12         -4.0020     1.4260    -2.4260 ha         1 7O0       0.108000
     29 H10         -4.1940    -3.1200     2.5640 ha         1 7O0       0.109500
     30 H9          -5.5190    -4.2720     0.7930 ha         1 7O0       0.107000
     31 H8          -6.2780    -3.0040    -1.2150 ha         1 7O0       0.109500
     32 H13         -1.8950     1.7110    -3.7130 ha         1 7O0       0.109000
     33 H3           1.5840    -0.2270    -1.2390 ha         1 7O0       0.116000
     34 H1           5.7290    -0.3550     1.0210 ha         1 7O0       0.142000
     35 H17          4.2680     1.0600     1.8930 ha         1 7O0       0.121000
     36 H16          2.5340     2.5980     2.7420 ha         1 7O0       0.114000
     37 H15         -0.6180     2.9240     1.1270 ho         1 7O0       0.461000
     38 H14          0.2980     1.6370    -2.5530 ha         1 7O0       0.125000
     39 H6          -4.1930     1.4590     1.2630 hc         1 7O0       0.050700
     40 H5          -5.1150     1.5240    -0.2150 hc         1 7O0       0.050700
     41 H7          -5.7160    -0.5940    -1.4550 ha         1 7O0       0.115000
     42 H11         -3.6280    -0.7110     2.3310 ha         1 7O0       0.115000
@<TRIPOS>BOND
     1     1    17 2   
     2     1    18 1   
     3     1    26 1   
     4     2     3 1   
     5     2    15 ar  
     6     2    21 ar  
     7     3     4 ar  
     8     3    23 ar  
     9     4     5 ar  
    10     4    27 1   
    11     5     7 ar  
    12     5    24 1   
    13     6    11 ar  
    14     6    25 ar  
    15     6    41 1   
    16     7    12 ar  
    17     7    28 1   
    18     8     9 ar  
    19     8    25 ar  
    20     8    42 1   
    21     9    10 ar  
    22     9    29 1   
    23    10    11 ar  
    24    10    30 1   
    25    11    31 1   
    26    12    23 ar  
    27    12    32 1   
    28    13    14 1   
    29    13    16 1   
    30    13    17 1   
    31    15    18 ar  
    32    15    33 1   
    33    17    34 1   
    34    18    19 ar  
    35    19    20 ar  
    36    19    35 1   
    37    20    21 ar  
    38    20    36 1   
    39    21    22 1   
    40    22    37 1   
    41    23    38 1   
    42    24    25 1   
    43    24    39 1   
    44    24    40 1   
@<TRIPOS>SUBSTRUCTURE
     1 7O0         1 TEMP              0 ****  ****    0 ROOT
