@<TRIPOS>MOLECULE
7O2
   82    85     1     0     0
SMALL
abcg2


@<TRIPOS>ATOM
      1 C1          -2.9250    -1.0300     1.8350 c3         1 7O2      -0.185500
      2 C2          -4.3560    -0.9380     1.3030 c3         1 7O2      -0.038400
      3 C3          -4.6150    -1.7270     0.0170 c3         1 7O2      -0.051100
      4 C6          -7.8660    -0.5000    -1.5180 ca         1 7O2      -0.118500
      5 N11         -2.9100    -0.5880     3.2320 n8         1 7O2      -0.996200
      6 C15         -0.1070    -0.4440     1.5740 c3         1 7O2      -0.427400
      7 C16          1.0250     0.1950     0.7580 c3         1 7O2      -0.098700
      8 C17          1.3460     1.5980     1.2770 c3         1 7O2      -0.071400
      9 C18          2.2920     2.4000     0.3780 c3         1 7O2       0.026900
     10 C4          -6.0590    -1.6540    -0.3890 ca         1 7O2      -0.049300
     11 C5          -6.5230    -0.6030    -1.1790 ca         1 7O2      -0.109000
     12 C7          -8.7730    -1.4530    -1.0720 ca         1 7O2      -0.131000
     13 C8          -8.3250    -2.5060    -0.2860 ca         1 7O2      -0.118500
     14 C9          -6.9810    -2.6030     0.0510 ca         1 7O2      -0.109000
     15 P12         -1.7330    -0.0640     0.7870 p5         1 7O2       1.345000
     16 O13         -1.6890    -0.6240    -0.6240 o          1 7O2      -0.813500
     17 O14         -2.0580     1.4110     0.9810 o          1 7O2      -0.813500
     18 C19          1.8150     2.5480    -1.0550 ca         1 7O2      -0.072300
     19 C20          0.4670     2.6300    -1.3990 ca         1 7O2      -0.099000
     20 C21          0.0840     2.8120    -2.7220 ca         1 7O2      -0.115250
     21 C22          1.0400     2.9070    -3.7250 ca         1 7O2      -0.124000
     22 C23          2.3850     2.8080    -3.3940 ca         1 7O2      -0.115250
     23 C24          2.7640     2.6260    -2.0720 ca         1 7O2      -0.099000
     24 C25          2.5750     3.7590     0.9830 ca         1 7O2      -0.072300
     25 C26          3.8630     4.0990     1.3840 ca         1 7O2      -0.099000
     26 C27          4.1330     5.3400     1.9480 ca         1 7O2      -0.115250
     27 C28          3.1120     6.2630     2.1200 ca         1 7O2      -0.124000
     28 C29          1.8210     5.9350     1.7240 ca         1 7O2      -0.115250
     29 C30          1.5570     4.6950     1.1600 ca         1 7O2      -0.099000
     30 C31          2.2620    -0.6810     0.7850 c          1 7O2       0.612100
     31 O32          2.7250    -1.1310     1.8220 o          1 7O2      -0.623100
     32 N33          2.8030    -0.9160    -0.4280 ns         1 7O2      -0.498900
     33 C34          3.8040    -1.9110    -0.6860 c3         1 7O2       0.031700
     34 C35          3.1850    -3.1340    -1.4010 c3         1 7O2      -0.043100
     35 C36          2.0550    -3.7330    -0.6130 ca         1 7O2      -0.094300
     36 C37          0.7610    -3.2300    -0.7240 ca         1 7O2      -0.096500
     37 C38         -0.2740    -3.7510     0.0410 ca         1 7O2      -0.108500
     38 C39         -0.0310    -4.7930     0.9240 ca         1 7O2      -0.115000
     39 C40          1.2550    -5.3080     1.0400 ca         1 7O2      -0.108500
     40 C41          2.2880    -4.7770     0.2800 ca         1 7O2      -0.096500
     41 C42          4.8990    -1.3280    -1.5750 c          1 7O2       0.592100
     42 N43          6.1180    -1.8430    -1.3740 nt         1 7O2      -0.613000
     43 O44          4.6420    -0.4970    -2.4300 o          1 7O2      -0.601100
     44 H1          -2.6230    -2.0850     1.8240 h1         1 7O2       0.044700
     45 H2          -5.0240    -1.3100     2.0870 hc         1 7O2       0.039700
     46 H3          -4.6230     0.1140     1.1490 hc         1 7O2       0.039700
     47 H4          -3.9780    -1.3450    -0.7800 hc         1 7O2       0.065700
     48 H5          -4.3280    -2.7700     0.1790 hc         1 7O2       0.065700
     49 H7          -2.0120    -0.7990     3.6500 hn         1 7O2       0.386000
     50 H8          -2.9860     0.4240     3.2530 hn         1 7O2       0.386000
     51 H10         -0.0050    -1.5310     1.5910 hc         1 7O2       0.056700
     52 H11         -0.0660    -0.1030     2.6120 hc         1 7O2       0.056700
     53 H12          0.6850     0.2770    -0.2780 hc         1 7O2       0.077700
     54 H13          0.4030     2.1280     1.4150 hc         1 7O2       0.068200
     55 H14          1.7960     1.5190     2.2710 hc         1 7O2       0.068200
     56 H15          3.2480     1.8670     0.3360 hc         1 7O2       0.052700
     57 H16         -5.8220     0.1430    -1.5360 ha         1 7O2       0.116000
     58 H17         -9.8200    -1.3750    -1.3380 ha         1 7O2       0.096000
     59 H18         -9.0230    -3.2570     0.0630 ha         1 7O2       0.099000
     60 H19         -6.6410    -3.4350     0.6580 ha         1 7O2       0.116000
     61 H21         -0.3050     2.5230    -0.6440 ha         1 7O2       0.126750
     62 H22         -0.9680     2.8720    -2.9690 ha         1 7O2       0.105250
     63 H23          0.7390     3.0470    -4.7550 ha         1 7O2       0.098000
     64 H24          3.1410     2.8620    -4.1680 ha         1 7O2       0.105250
     65 H25          3.8160     2.5410    -1.8270 ha         1 7O2       0.126750
     66 H26          4.6680     3.3840     1.2550 ha         1 7O2       0.126750
     67 H27          5.1430     5.5840     2.2530 ha         1 7O2       0.105250
     68 H28          3.3190     7.2300     2.5610 ha         1 7O2       0.098000
     69 H29          1.0160     6.6480     1.8520 ha         1 7O2       0.105250
     70 H30          0.5440     4.4590     0.8550 ha         1 7O2       0.126750
     71 H31          2.3710    -0.4920    -1.2340 hn         1 7O2       0.336500
     72 H32          4.2200    -2.2270     0.2720 h1         1 7O2       0.086700
     73 H33          2.8290    -2.8170    -2.3850 hc         1 7O2       0.048700
     74 H34          3.9680    -3.8780    -1.5660 hc         1 7O2       0.048700
     75 H35          0.5470    -2.4140    -1.4030 ha         1 7O2       0.117000
     76 H36         -1.2610    -3.3160    -0.0490 ha         1 7O2       0.120000
     77 H37         -0.8360    -5.2020     1.5220 ha         1 7O2       0.106000
     78 H38          1.4520    -6.1230     1.7240 ha         1 7O2       0.120000
     79 H39          3.2890    -5.1820     0.3790 ha         1 7O2       0.117000
     80 H40          6.3040    -2.5010    -0.6360 hn         1 7O2       0.308500
     81 H41          6.8910    -1.5770    -1.9620 hn         1 7O2       0.308500
     82 H6          -8.2030     0.3230    -2.1350 ha         1 7O2       0.099000
@<TRIPOS>BOND
     1     1     2 1   
     2     1     5 1   
     3     1    15 1   
     4     1    44 1   
     5     2     3 1   
     6     2    45 1   
     7     2    46 1   
     8     3    10 1   
     9     3    47 1   
    10     3    48 1   
    11     4    11 ar  
    12     4    12 ar  
    13     4    82 1   
    14     5    49 1   
    15     5    50 1   
    16     6     7 1   
    17     6    15 1   
    18     6    51 1   
    19     6    52 1   
    20     7     8 1   
    21     7    30 1   
    22     7    53 1   
    23     8     9 1   
    24     8    54 1   
    25     8    55 1   
    26     9    18 1   
    27     9    24 1   
    28     9    56 1   
    29    10    11 ar  
    30    10    14 ar  
    31    11    57 1   
    32    12    13 ar  
    33    12    58 1   
    34    13    14 ar  
    35    13    59 1   
    36    14    60 1   
    37    15    16 1   
    38    15    17 1   
    39    18    19 ar  
    40    18    23 ar  
    41    19    20 ar  
    42    19    61 1   
    43    20    21 ar  
    44    20    62 1   
    45    21    22 ar  
    46    21    63 1   
    47    22    23 ar  
    48    22    64 1   
    49    23    65 1   
    50    24    25 ar  
    51    24    29 ar  
    52    25    26 ar  
    53    25    66 1   
    54    26    27 ar  
    55    26    67 1   
    56    27    28 ar  
    57    27    68 1   
    58    28    29 ar  
    59    28    69 1   
    60    29    70 1   
    61    30    31 2   
    62    30    32 1   
    63    32    33 1   
    64    32    71 1   
    65    33    34 1   
    66    33    41 1   
    67    33    72 1   
    68    34    35 1   
    69    34    73 1   
    70    34    74 1   
    71    35    36 ar  
    72    35    40 ar  
    73    36    37 ar  
    74    36    75 1   
    75    37    38 ar  
    76    37    76 1   
    77    38    39 ar  
    78    38    77 1   
    79    39    40 ar  
    80    39    78 1   
    81    40    79 1   
    82    41    42 1   
    83    41    43 2   
    84    42    80 1   
    85    42    81 1   
@<TRIPOS>SUBSTRUCTURE
     1 7O2         1 TEMP              0 ****  ****    0 ROOT
