@<TRIPOS>MOLECULE
7O2
   82    85     1     0     0
SMALL
No Charge or Current Charge


@<TRIPOS>ATOM
      1 C1          -2.9150    -1.6220     1.3570 c3         1 7O2      -0.185500
      2 C2          -4.4500    -1.3860     1.2300 c3         1 7O2      -0.038400
      3 C3          -4.9760    -1.2020    -0.2140 c3         1 7O2      -0.051100
      4 C6          -8.5920     0.0750    -0.0600 ca         1 7O2      -0.118500
      5 N11         -2.6340    -2.1610     2.7540 n8         1 7O2      -0.996200
      6 C15         -0.1730    -0.5650     1.1990 c3         1 7O2      -0.427400
      7 C16          1.0120     0.2080     0.5310 c3         1 7O2      -0.098700
      8 C17          1.1390     1.6680     1.0540 c3         1 7O2      -0.071400
      9 C18          2.2360     2.5180     0.3490 c3         1 7O2       0.026900
     10 C4          -6.4980    -1.1640    -0.2660 ca         1 7O2      -0.049300
     11 C5          -7.1870     0.0390    -0.0150 ca         1 7O2      -0.109000
     12 C7          -9.3160    -1.0920    -0.3560 ca         1 7O2      -0.131000
     13 C8          -8.6350    -2.2950    -0.6060 ca         1 7O2      -0.118500
     14 C9          -7.2310    -2.3310    -0.5610 ca         1 7O2      -0.109000
     15 P12         -1.8800    -0.1750     0.6210 p5         1 7O2       1.345000
     16 O13         -1.9070    -0.1950    -0.8740 o          1 7O2      -0.813500
     17 O14         -2.3190     1.1330     1.2010 o          1 7O2      -0.813500
     18 C19          2.0650     2.6160    -1.1730 ca         1 7O2      -0.072300
     19 C20          0.8030     2.8420    -1.7690 ca         1 7O2      -0.099000
     20 C21          0.6790     2.9240    -3.1670 ca         1 7O2      -0.115250
     21 C22          1.8120     2.7860    -3.9840 ca         1 7O2      -0.124000
     22 C23          3.0700     2.5690    -3.4020 ca         1 7O2      -0.115250
     23 C24          3.1960     2.4870    -2.0050 ca         1 7O2      -0.099000
     24 C25          2.3740     3.9150     0.9640 ca         1 7O2      -0.072300
     25 C26          3.6320     4.3590     1.4240 ca         1 7O2      -0.099000
     26 C27          3.7780     5.6390     1.9850 ca         1 7O2      -0.115250
     27 C28          2.6680     6.4930     2.0890 ca         1 7O2      -0.124000
     28 C29          1.4130     6.0650     1.6280 ca         1 7O2      -0.115250
     29 C30          1.2660     4.7840     1.0670 ca         1 7O2      -0.099000
     30 C31          2.3460    -0.5680     0.6880 c          1 7O2       0.612100
     31 O32          2.8460    -0.8110     1.7790 o          1 7O2      -0.623100
     32 N33          2.9320    -0.9710    -0.4930 ns         1 7O2      -0.498900
     33 C34          4.0670    -1.9200    -0.5910 c3         1 7O2       0.031700
     34 C35          3.5730    -3.3280    -1.0260 c3         1 7O2      -0.043100
     35 C36          2.3380    -3.8030    -0.2640 ca         1 7O2      -0.094300
     36 C37          1.0840    -3.8640    -0.9040 ca         1 7O2      -0.096500
     37 C38         -0.0540    -4.2890    -0.1980 ca         1 7O2      -0.108500
     38 C39          0.0530    -4.6550     1.1540 ca         1 7O2      -0.115000
     39 C40          1.3000    -4.5960     1.7990 ca         1 7O2      -0.108500
     40 C41          2.4390    -4.1730     1.0920 ca         1 7O2      -0.096500
     41 C42          5.1900    -1.3780    -1.5250 c          1 7O2       0.592100
     42 N43          6.3060    -2.1370    -1.6300 nt         1 7O2      -0.613000
     43 O44          5.1130    -0.3360    -2.1560 o          1 7O2      -0.601100
     44 H1          -2.6610    -2.4390     0.6690 h1         1 7O2       0.044700
     45 H2          -4.9770    -2.2430     1.6680 hc         1 7O2       0.039700
     46 H3          -4.7340    -0.5100     1.8270 hc         1 7O2       0.039700
     47 H4          -4.5790    -0.2730    -0.6400 hc         1 7O2       0.065700
     48 H5          -4.5980    -2.0170    -0.8430 hc         1 7O2       0.065700
     49 H7          -1.6410    -2.4180     2.8360 hn         1 7O2       0.386000
     50 H8          -2.7450    -1.4110     3.4500 hn         1 7O2       0.386000
     51 H10         -0.0610    -1.6340     0.9960 hc         1 7O2       0.056700
     52 H11         -0.1500    -0.4380     2.2870 hc         1 7O2       0.056700
     53 H12          0.7970     0.2560    -0.5430 hc         1 7O2       0.077700
     54 H13          0.1700     2.1690     0.9660 hc         1 7O2       0.068200
     55 H14          1.3620     1.6390     2.1280 hc         1 7O2       0.068200
     56 H15          3.1790     1.9890     0.5380 hc         1 7O2       0.052700
     57 H16         -6.6330     0.9460     0.2170 ha         1 7O2       0.116000
     58 H17        -10.4030    -1.0640    -0.3910 ha         1 7O2       0.096000
     59 H18         -9.1950    -3.1990    -0.8340 ha         1 7O2       0.099000
     60 H19         -6.7110    -3.2680    -0.7530 ha         1 7O2       0.116000
     61 H21         -0.0880     2.9540    -1.1570 ha         1 7O2       0.126750
     62 H22         -0.2970     3.0950    -3.6150 ha         1 7O2       0.105250
     63 H23          1.7150     2.8490    -5.0660 ha         1 7O2       0.098000
     64 H24          3.9500     2.4620    -4.0330 ha         1 7O2       0.105250
     65 H25          4.1780     2.3190    -1.5690 ha         1 7O2       0.126750
     66 H26          4.5030     3.7110     1.3480 ha         1 7O2       0.126750
     67 H27          4.7520     5.9700     2.3380 ha         1 7O2       0.105250
     68 H28          2.7810     7.4840     2.5220 ha         1 7O2       0.098000
     69 H29          0.5520     6.7260     1.7040 ha         1 7O2       0.105250
     70 H30          0.2870     4.4750     0.7100 ha         1 7O2       0.126750
     71 H31          2.4780    -0.6770    -1.3490 hn         1 7O2       0.336500
     72 H32          4.5260    -2.0210     0.4000 h1         1 7O2       0.086700
     73 H33          3.3590    -3.3050    -2.1020 hc         1 7O2       0.048700
     74 H34          4.3850    -4.0540    -0.8970 hc         1 7O2       0.048700
     75 H35          0.9880    -3.5770    -1.9490 ha         1 7O2       0.117000
     76 H36         -1.0200    -4.3310    -0.6980 ha         1 7O2       0.120000
     77 H37         -0.8290    -4.9810     1.7010 ha         1 7O2       0.106000
     78 H38          1.3840    -4.8770     2.8460 ha         1 7O2       0.120000
     79 H39          3.4000    -4.1260     1.6000 ha         1 7O2       0.117000
     80 H40          6.3860    -3.0010    -1.1140 hn         1 7O2       0.308500
     81 H41          7.0580    -1.8250    -2.2270 hn         1 7O2       0.308500
     82 H6          -9.1180     1.0070     0.1350 ha         1 7O2       0.099000
@<TRIPOS>BOND
     1     1     2 1   
     2     1     5 1   
     3     1    15 1   
     4     1    44 1   
     5     2     3 1   
     6     2    45 1   
     7     2    46 1   
     8     3    10 1   
     9     3    47 1   
    10     3    48 1   
    11     4    11 ar  
    12     4    12 ar  
    13     4    82 1   
    14     5    49 1   
    15     5    50 1   
    16     6     7 1   
    17     6    15 1   
    18     6    51 1   
    19     6    52 1   
    20     7     8 1   
    21     7    30 1   
    22     7    53 1   
    23     8     9 1   
    24     8    54 1   
    25     8    55 1   
    26     9    18 1   
    27     9    24 1   
    28     9    56 1   
    29    10    11 ar  
    30    10    14 ar  
    31    11    57 1   
    32    12    13 ar  
    33    12    58 1   
    34    13    14 ar  
    35    13    59 1   
    36    14    60 1   
    37    15    16 1   
    38    15    17 1   
    39    18    19 ar  
    40    18    23 ar  
    41    19    20 ar  
    42    19    61 1   
    43    20    21 ar  
    44    20    62 1   
    45    21    22 ar  
    46    21    63 1   
    47    22    23 ar  
    48    22    64 1   
    49    23    65 1   
    50    24    25 ar  
    51    24    29 ar  
    52    25    26 ar  
    53    25    66 1   
    54    26    27 ar  
    55    26    67 1   
    56    27    28 ar  
    57    27    68 1   
    58    28    29 ar  
    59    28    69 1   
    60    29    70 1   
    61    30    31 2   
    62    30    32 1   
    63    32    33 1   
    64    32    71 1   
    65    33    34 1   
    66    33    41 1   
    67    33    72 1   
    68    34    35 1   
    69    34    73 1   
    70    34    74 1   
    71    35    36 ar  
    72    35    40 ar  
    73    36    37 ar  
    74    36    75 1   
    75    37    38 ar  
    76    37    76 1   
    77    38    39 ar  
    78    38    77 1   
    79    39    40 ar  
    80    39    78 1   
    81    40    79 1   
    82    41    42 1   
    83    41    43 2   
    84    42    80 1   
    85    42    81 1   
@<TRIPOS>SUBSTRUCTURE
     1 7O2         1 TEMP              0 ****  ****    0 ROOT
