@<TRIPOS>MOLECULE
7O3
   36    38     1     0     0
SMALL
No Charge or Current Charge


@<TRIPOS>ATOM
      1 C1          -0.7310     0.4000    -0.2540 ca         1 7O3      -0.047000
      2 C2          -0.0920    -0.8050     0.1120 ca         1 7O3      -0.196000
      3 C3          -0.8680    -1.9660     0.3440 ca         1 7O3       0.079000
      4 C7          -6.7140    -0.2620    -0.5550 c3         1 7O3       0.013600
      5 C8           1.0650    -3.1290     0.8010 ca         1 7O3       0.171900
      6 C9           1.3120    -0.9200     0.2530 ca         1 7O3       0.414900
      7 C10          3.5440     0.3450    -0.0370 ca         1 7O3       0.351000
      8 C11          4.3540    -0.6650    -0.5880 ca         1 7O3      -0.203000
      9 C12          5.7370    -0.4690    -0.7230 ca         1 7O3       0.165100
     10 C13          6.3220     0.7400    -0.3210 ca         1 7O3      -0.156000
     11 C14          5.5220     1.7640     0.2110 ca         1 7O3      -0.045000
     12 C15          4.1370     1.5720     0.3480 ca         1 7O3       0.032000
     13 Cl1          3.1570     2.8880     1.0120 cl         1 7O3      -0.206000
     14 O1           6.5220    -1.4480    -1.2540 oh         1 7O3      -0.528100
     15 N3           2.1570     0.1780     0.0950 nu         1 7O3      -0.937900
     16 N2           1.8870    -2.0820     0.6070 nb         1 7O3      -0.277000
     17 N1          -0.2770    -3.1280     0.6880 nb         1 7O3      -0.208000
     18 C4          -2.2660    -1.8960     0.2130 ca         1 7O3      -0.174000
     19 C5          -2.9120    -0.6990    -0.1450 ca         1 7O3       0.017000
     20 C           -2.1290     0.4510    -0.3800 ca         1 7O3      -0.139000
     21 N           -4.3300    -0.7260    -0.2530 ns         1 7O3      -0.152000
     22 C6          -5.2670     0.2580    -0.5410 c          1 7O3       0.606100
     23 O           -4.9870     1.4320    -0.7630 o          1 7O3      -0.537100
     24 Cl          -7.9780     1.0060    -0.9330 cl         1 7O3      -0.206000
     25 H1          -0.1610     1.3040    -0.4540 ha         1 7O3       0.115000
     26 H2          -6.7950    -1.0530    -1.3090 h1         1 7O3       0.082700
     27 H3          -6.9450    -0.6840     0.4300 h1         1 7O3       0.082700
     28 H4           1.5310    -4.0720     1.0830 h5         1 7O3       0.046100
     29 H5           3.9080    -1.5930    -0.9270 ha         1 7O3       0.141000
     30 H6           7.3940     0.8870    -0.4290 ha         1 7O3       0.136000
     31 H7           5.9740     2.7060     0.5150 ha         1 7O3       0.132000
     32 H8           5.9550    -2.2180    -1.4750 ho         1 7O3       0.471000
     33 H9           1.6740     1.0630     0.2360 hn         1 7O3       0.512000
     34 H10         -2.8580    -2.7910     0.3940 ha         1 7O3       0.132000
     35 H11         -2.5800     1.3950    -0.6670 ha         1 7O3       0.154000
     36 H12         -4.7300    -1.6410    -0.0900 hn         1 7O3       0.155000
@<TRIPOS>BOND
     1     1     2 ar  
     2     1    20 ar  
     3     1    25 1   
     4     2     3 ar  
     5     2     6 ar  
     6     3    17 ar  
     7     3    18 ar  
     8     4    22 1   
     9     4    24 1   
    10     4    26 1   
    11     4    27 1   
    12     5    16 ar  
    13     5    17 ar  
    14     5    28 1   
    15     6    15 1   
    16     6    16 ar  
    17     7     8 ar  
    18     7    12 ar  
    19     7    15 1   
    20     8     9 ar  
    21     8    29 1   
    22     9    10 ar  
    23     9    14 1   
    24    10    11 ar  
    25    10    30 1   
    26    11    12 ar  
    27    11    31 1   
    28    12    13 1   
    29    14    32 1   
    30    15    33 1   
    31    18    19 ar  
    32    18    34 1   
    33    19    20 ar  
    34    19    21 1   
    35    20    35 1   
    36    21    22 1   
    37    21    36 1   
    38    22    23 2   
@<TRIPOS>SUBSTRUCTURE
     1 7O3         1 TEMP              0 ****  ****    0 ROOT
