@<TRIPOS>MOLECULE
7O3
   36    38     1     0     0
SMALL
abcg2


@<TRIPOS>ATOM
      1 C1          -0.8000     0.4320    -0.4440 ca         1 7O3      -0.047000
      2 C2          -0.1010    -0.7190    -0.0430 ca         1 7O3      -0.196000
      3 C3          -0.8360    -1.8800     0.2730 ca         1 7O3       0.079000
      4 C7          -6.6260    -0.2920    -0.3580 c3         1 7O3       0.013600
      5 C8           1.0780    -3.0080     0.6700 ca         1 7O3       0.171900
      6 C9           1.3240    -0.8310     0.0750 ca         1 7O3       0.414900
      7 C10          3.4890     0.3450    -0.1120 ca         1 7O3       0.351000
      8 C11          4.3110    -0.6660    -0.6040 ca         1 7O3      -0.203000
      9 C12          5.6940    -0.5240    -0.5880 ca         1 7O3       0.165100
     10 C13          6.2730     0.6420    -0.0930 ca         1 7O3      -0.156000
     11 C14          5.4610     1.6550     0.3790 ca         1 7O3      -0.045000
     12 C15          4.0840     1.5100     0.3780 ca         1 7O3       0.032000
     13 CL1          3.0960     2.7960     0.9960 cl         1 7O3      -0.206000
     14 O1           6.5160    -1.4830    -1.0500 oh         1 7O3      -0.528100
     15 N3           2.0970     0.2590    -0.1500 nu         1 7O3      -0.937900
     16 N2           1.8870    -1.9680     0.4150 nb         1 7O3      -0.277000
     17 N1          -0.2220    -3.0400     0.6350 nb         1 7O3      -0.208000
     18 C4          -2.2360    -1.8470     0.2110 ca         1 7O3      -0.174000
     19 C5          -2.9060    -0.7010    -0.1660 ca         1 7O3       0.017000
     20 C           -2.1680     0.4550    -0.5070 ca         1 7O3      -0.139000
     21 N           -4.2970    -0.7610    -0.1930 ns         1 7O3      -0.152000
     22 C6          -5.1970     0.2110    -0.4970 c          1 7O3       0.606100
     23 O           -4.9220     1.3410    -0.8310 o          1 7O3      -0.537100
     24 CL          -7.7940     0.9470    -0.8390 cl         1 7O3      -0.206000
     25 H1          -0.2780     1.3360    -0.7310 ha         1 7O3       0.115000
     26 H2          -6.7810    -1.1730    -0.9790 h1         1 7O3       0.082700
     27 H3          -6.8220    -0.5700     0.6780 h1         1 7O3       0.082700
     28 H4           1.5840    -3.9280     0.9460 h5         1 7O3       0.046100
     29 H5           3.8670    -1.5660    -1.0050 ha         1 7O3       0.141000
     30 H6           7.3490     0.7560    -0.0820 ha         1 7O3       0.136000
     31 H7           5.9040     2.5630     0.7630 ha         1 7O3       0.132000
     32 H8           6.0110    -2.2360    -1.3780 ho         1 7O3       0.471000
     33 H9           1.6180     1.1400    -0.2360 hn         1 7O3       0.512000
     34 H10         -2.7790    -2.7490     0.4680 ha         1 7O3       0.132000
     35 H11         -2.6640     1.3560    -0.8240 ha         1 7O3       0.154000
     36 H12         -4.6810    -1.6590     0.0680 hn         1 7O3       0.155000
@<TRIPOS>BOND
     1     1     2 ar  
     2     1    20 ar  
     3     1    25 1   
     4     2     3 ar  
     5     2     6 ar  
     6     3    17 ar  
     7     3    18 ar  
     8     4    22 1   
     9     4    24 1   
    10     4    26 1   
    11     4    27 1   
    12     5    16 ar  
    13     5    17 ar  
    14     5    28 1   
    15     6    15 1   
    16     6    16 ar  
    17     7     8 ar  
    18     7    12 ar  
    19     7    15 1   
    20     8     9 ar  
    21     8    29 1   
    22     9    10 ar  
    23     9    14 1   
    24    10    11 ar  
    25    10    30 1   
    26    11    12 ar  
    27    11    31 1   
    28    12    13 1   
    29    14    32 1   
    30    15    33 1   
    31    18    19 ar  
    32    18    34 1   
    33    19    20 ar  
    34    19    21 1   
    35    20    35 1   
    36    21    22 1   
    37    21    36 1   
    38    22    23 2   
@<TRIPOS>SUBSTRUCTURE
     1 7O3         1 TEMP              0 ****  ****    0 ROOT
