@<TRIPOS>MOLECULE
7O4
   18    19     1     0     0
SMALL
No Charge or Current Charge


@<TRIPOS>ATOM
      1 CAD          2.8800     1.0280     0.0180 cc         1 7O4      -0.205000
      2 CAA          4.0750     0.2830     0.0220 cc         1 7O4      -0.193000
      3 CAB          3.7140    -1.0400     0.0300 cd         1 7O4       0.089900
      4 OAC          2.3440    -1.1910     0.0330 os         1 7O4      -0.232000
      5 CAE          1.8710     0.1020     0.0250 cd         1 7O4       0.161000
      6 CAG          0.4630     0.4310     0.0240 cd         1 7O4       0.160000
      7 CAF         -0.5510    -0.5500     0.0310 cd         1 7O4      -0.205000
      8 CAJ         -1.7560     0.1030     0.0270 cc         1 7O4      -0.189600
      9 CAL         -3.1030    -0.5180     0.0330 c          1 7O4       0.736600
     10 OAI         -3.1960    -1.7370     0.0410 o          1 7O4      -0.708500
     11 OAM         -4.0730     0.2260     0.0280 o          1 7O4      -0.708500
     12 NAK         -1.3960     1.4500     0.0180 na         1 7O4       0.031800
     13 NAH         -0.0210     1.6630     0.0160 nc         1 7O4      -0.564800
     14 H1           2.7900     2.1100     0.0110 ha         1 7O4       0.143000
     15 H2           5.0830     0.6880     0.0180 ha         1 7O4       0.122000
     16 H3           4.3180    -1.9380     0.0360 h4         1 7O4       0.037100
     17 H4          -0.4020    -1.6250     0.0380 ha         1 7O4       0.148000
     18 H6          -2.0540     2.2300     0.0140 hn         1 7O4       0.377000
@<TRIPOS>BOND
     1     1     2 1   
     2     1     5 2   
     3     1    14 1   
     4     2     3 2   
     5     2    15 1   
     6     3     4 1   
     7     3    16 1   
     8     4     5 1   
     9     5     6 1   
    10     6     7 1   
    11     6    13 2   
    12     7     8 2   
    13     7    17 1   
    14     8     9 1   
    15     8    12 1   
    16     9    10 1   
    17     9    11 1   
    18    12    13 1   
    19    12    18 1   
@<TRIPOS>SUBSTRUCTURE
     1 7O4         1 TEMP              0 ****  ****    0 ROOT
