@<TRIPOS>MOLECULE
7O4
   18    19     1     0     0
SMALL
bcc


@<TRIPOS>ATOM
      1 CAD          2.9170     1.0840     0.0160 cc         1 7O4      -0.288300
      2 CAA          4.1160     0.3100     0.0200 cc         1 7O4      -0.276300
      3 CAB          3.7270    -0.9860     0.0320 cd         1 7O4       0.199600
      4 OAC          2.3790    -1.0670     0.0340 os         1 7O4      -0.320800
      5 CAE          1.8910     0.1920     0.0250 cd         1 7O4       0.270700
      6 CAG          0.4520     0.3390     0.0250 cd         1 7O4       0.225300
      7 CAF         -0.5330    -0.6670     0.0320 cd         1 7O4      -0.288300
      8 CAJ         -1.7290     0.0190     0.0280 cc         1 7O4      -0.138900
      9 CAL         -3.1620    -0.4430     0.0310 c          1 7O4       0.947200
     10 OAI         -3.3360    -1.6720     0.0350 o          1 7O4      -0.813800
     11 OAM         -4.0170     0.4630     0.0290 o          1 7O4      -0.813800
     12 NAK         -1.4000     1.3230     0.0200 na         1 7O4       0.031400
     13 NAH         -0.0990     1.5480     0.0180 nc         1 7O4      -0.564800
     14 H1           2.8300     2.1580     0.0070 ha         1 7O4       0.161000
     15 H2           5.1300     0.6740     0.0160 ha         1 7O4       0.140000
     16 H3           4.2660    -1.9180     0.0380 h4         1 7O4       0.037100
     17 H4          -0.3960    -1.7350     0.0380 ha         1 7O4       0.166000
     18 H6          -2.0510     2.0930     0.0170 hn         1 7O4       0.326700
@<TRIPOS>BOND
     1     1     2 1   
     2     1     5 2   
     3     1    14 1   
     4     2     3 2   
     5     2    15 1   
     6     3     4 1   
     7     3    16 1   
     8     4     5 1   
     9     5     6 1   
    10     6     7 1   
    11     6    13 2   
    12     7     8 2   
    13     7    17 1   
    14     8     9 1   
    15     8    12 1   
    16     9    10 1   
    17     9    11 1   
    18    12    13 1   
    19    12    18 1   
@<TRIPOS>SUBSTRUCTURE
     1 7O4         1 TEMP              0 ****  ****    0 ROOT
