@<TRIPOS>MOLECULE
7O5
   20    19     1     0     0
SMALL
No Charge or Current Charge


@<TRIPOS>ATOM
      1 C           -9.0420    22.3560    -5.6660 c          1 7O5       0.727000
      2 CB         -10.6220    20.6080    -4.5980 c3         1 7O5       0.117000
      3 CA          -9.1850    20.8700    -5.1270 c3         1 7O5       0.000500
      4 N           -8.1390    20.4130    -4.1330 n8         1 7O5      -0.993200
      5 O           -8.2300    22.5640    -6.5580 o          1 7O5      -0.726000
      6 S1G        -12.6850    16.4230    -4.8380 sh         1 7O5      -0.464800
      7 C1S        -11.8450    17.1590    -3.3380 c3         1 7O5      -0.022400
      8 C2S        -11.7590    18.6940    -3.4120 c          1 7O5       0.598100
      9 O2S        -12.4310    19.4300    -2.7010 o          1 7O5      -0.610100
     10 H2         -10.7790    21.1780    -3.6720 h1         1 7O5       0.067700
     11 H3         -11.3520    20.9610    -5.3390 h1         1 7O5       0.067700
     12 H4          -9.0550    20.2210    -6.0040 h1         1 7O5      -0.008300
     13 H5          -8.2790    19.4180    -3.9210 hn         1 7O5       0.383500
     14 H6          -7.2140    20.4430    -4.5810 hn         1 7O5       0.383500
     15 H8         -13.8610    17.0880    -4.6980 hs         1 7O5       0.211800
     16 H9         -12.4040    16.8880    -2.4340 h1         1 7O5       0.086700
     17 H10        -10.8270    16.7590    -3.2560 h1         1 7O5       0.086700
     18 H11        -10.3910    18.4980    -4.9180 hn         1 7O5       0.308500
     19 OXT         -9.7440    23.2380    -5.1860 o          1 7O5      -0.726000
     20 NS         -10.8760    19.1810    -4.3500 ns         1 7O5      -0.487900
@<TRIPOS>BOND
     1     1     3 1   
     2     1     5 1   
     3     1    19 1   
     4     2     3 1   
     5     2    10 1   
     6     2    11 1   
     7     2    20 1   
     8     3     4 1   
     9     3    12 1   
    10     4    13 1   
    11     4    14 1   
    12     6     7 1   
    13     6    15 1   
    14     7     8 1   
    15     7    16 1   
    16     7    17 1   
    17     8     9 2   
    18     8    20 1   
    19    18    20 1   
@<TRIPOS>SUBSTRUCTURE
     1 7O5         1 TEMP              0 ****  ****    0 ROOT
