@<TRIPOS>MOLECULE
7O5
   20    19     1     0     0
SMALL
abcg2


@<TRIPOS>ATOM
      1 C           -8.9430    22.2330    -5.4990 c          1 7O5       0.727000
      2 CB         -10.8140    20.6920    -4.7290 c3         1 7O5       0.117000
      3 CA          -9.3720    20.7670    -5.2250 c3         1 7O5       0.000500
      4 N           -8.4820    20.1340    -4.2670 n8         1 7O5      -0.993200
      5 O           -7.7480    22.5130    -5.2800 o          1 7O5      -0.726000
      6 S1G        -12.1300    16.4410    -4.7630 sh         1 7O5      -0.464800
      7 C1S        -11.7070    17.2950    -3.2190 c3         1 7O5      -0.022400
      8 C2S        -11.4040    18.7890    -3.2720 c          1 7O5       0.598100
      9 O2S        -11.3260    19.3990    -2.2130 o          1 7O5      -0.610100
     10 H2         -10.9230    21.2550    -3.8020 h1         1 7O5       0.067700
     11 H3         -11.4850    21.1310    -5.4660 h1         1 7O5       0.067700
     12 H4          -9.3450    20.2640    -6.2090 h1         1 7O5      -0.008300
     13 H5          -8.4790    19.1320    -4.4010 hn         1 7O5       0.383500
     14 H6          -7.5430    20.4610    -4.4540 hn         1 7O5       0.383500
     15 H8         -13.3670    16.9310    -4.9000 hs         1 7O5       0.211800
     16 H9         -12.4920    17.1310    -2.4810 h1         1 7O5       0.086700
     17 H10        -10.8150    16.7920    -2.8410 h1         1 7O5       0.086700
     18 H11        -11.2980    18.7100    -5.2770 hn         1 7O5       0.308500
     19 OXT         -9.8200    22.9930    -5.9520 o          1 7O5      -0.726000
     20 NS         -11.2260    19.3250    -4.4800 ns         1 7O5      -0.487900
@<TRIPOS>BOND
     1     1     3 1   
     2     1     5 1   
     3     1    19 1   
     4     2     3 1   
     5     2    10 1   
     6     2    11 1   
     7     2    20 1   
     8     3     4 1   
     9     3    12 1   
    10     4    13 1   
    11     4    14 1   
    12     6     7 1   
    13     6    15 1   
    14     7     8 1   
    15     7    16 1   
    16     7    17 1   
    17     8     9 2   
    18     8    20 1   
    19    18    20 1   
@<TRIPOS>SUBSTRUCTURE
     1 7O5         1 TEMP              0 ****  ****    0 ROOT
