@<TRIPOS>MOLECULE
7O7
   88    94     1     0     0
SMALL
No Charge or Current Charge


@<TRIPOS>ATOM
      1 C1           5.9470    -2.3400     0.1100 cc         1 7O7       0.670100
      2 C2           4.4890    -0.9750    -0.7820 ca         1 7O7       0.200400
      3 C3           3.5300    -0.4880    -1.6810 ca         1 7O7      -0.106000
      4 C4           2.9540     0.7780    -1.4640 ca         1 7O7      -0.013000
      5 C5           3.3420     1.5510    -0.3430 ca         1 7O7      -0.311500
      6 C6           4.3130     1.0550     0.5520 ca         1 7O7       0.049000
      7 C7          -7.7510     0.8480    -1.0910 c5         1 7O7       0.395300
      8 N1           5.1050    -2.2140    -0.9140 nd         1 7O7      -0.639100
      9 N2           6.6880    -3.4860     0.2190 nu         1 7O7      -0.854400
     10 C8          -6.2360     1.3160     0.8170 c6         1 7O7       0.189600
     11 C06         -1.2720    -3.2980    -0.8810 ca         1 7O7      -0.100500
     12 C07         -0.6710    -2.6890     0.2380 ca         1 7O7      -0.085300
     13 C08         -0.6580    -3.3690     1.4720 ca         1 7O7      -0.100500
     14 C10         -7.8490    -0.6050     1.0500 c5         1 7O7      -0.072400
     15 C11         -6.3900    -0.5510    -2.3240 c5         1 7O7       0.163600
     16 C12          0.6610     3.9440     1.7260 c3         1 7O7       0.228800
     17 C13          1.3430     5.2110     2.3120 c3         1 7O7      -0.086700
     18 C14          0.2910     6.2860     2.6720 c3         1 7O7      -0.087100
     19 C15          2.2360     4.8860     3.5350 c3         1 7O7      -0.087100
     20 C16          0.9170     1.4860     1.3840 c3         1 7O7       0.196800
     21 C17         -0.3910     1.2680     0.5450 c3         1 7O7       0.153300
     22 C19         -0.9710    -0.1750     0.6810 c3         1 7O7       0.095700
     23 C29          7.9470    -5.4980    -0.6170 cx         1 7O7      -0.126900
     24 C32         -0.0510    -1.3000     0.1230 c3         1 7O7      -0.061100
     25 C33         -1.8560    -4.5720    -0.7680 ca         1 7O7      -0.106500
     26 C34         -1.2410    -4.6440     1.5850 ca         1 7O7      -0.106500
     27 C35         -1.8400    -5.2450     0.4650 ca         1 7O7      -0.107000
     28 C36          7.6710    -4.6100    -1.8050 cx         1 7O7      -0.126900
     29 C39          4.8640    -0.2100     0.3040 ca         1 7O7      -0.226000
     30 C49         -5.7100    -1.2140     0.1820 c5         1 7O7       0.206300
     31 C59         -6.7480    -1.3630    -1.0140 c5         1 7O7      -0.099700
     32 C69         -7.9930    -0.5880    -0.4970 c5         1 7O7      -0.135700
     33 C79          6.7110    -4.6350    -0.6420 cx         1 7O7       0.162500
     34 C9          -6.3720    -0.1790     1.1730 c5         1 7O7      -0.130700
     35 N11          1.5630     2.8330     1.3200 n3         1 7O7      -0.788500
     36 N20         -2.2960    -0.2440     0.0540 ns         1 7O7      -0.480900
     37 O1          -6.5620     1.5050    -0.5640 os         1 7O7      -0.488000
     38 O10          3.6540     4.0310     0.4740 o          1 7O7      -0.546500
     39 O18         -0.2210     1.5930    -0.8520 oh         1 7O7      -0.662000
     40 O2          -7.4030     0.4900    -2.4320 os         1 7O7      -0.444000
     41 O22         -3.4790    -1.2250     1.7600 o          1 7O7      -0.541000
     42 O23         -4.4280    -0.7270    -0.2910 os         1 7O7      -0.449100
     43 O9           1.7050     3.5120    -1.1260 o          1 7O7      -0.546500
     44 S1           6.0680    -1.0160     1.2940 ss         1 7O7      -0.028200
     45 S8           2.5880     3.1510    -0.0130 sy         1 7O7       1.197600
     46 H1           3.2320    -1.0870    -2.5370 ha         1 7O7       0.135000
     47 H2           2.2080     1.1470    -2.1650 ha         1 7O7       0.126000
     48 H3           4.6190     1.6300     1.4250 ha         1 7O7       0.147000
     49 H4          -8.6360     1.4970    -1.0410 h2         1 7O7       0.086700
     50 H5           7.2680    -3.4770     1.0560 hn         1 7O7       0.511000
     51 H6          -6.9100     1.9230     1.4390 h1         1 7O7       0.046700
     52 H7          -5.2060     1.6620     0.9880 h1         1 7O7       0.046700
     53 H9          -1.2940    -2.7820    -1.8380 ha         1 7O7       0.109000
     54 H10         -0.2010    -2.9090     2.3440 ha         1 7O7       0.109000
     55 H11         -8.5400     0.0850     1.5480 hc         1 7O7       0.056700
     56 H12         -8.0280    -1.6050     1.4670 hc         1 7O7       0.056700
     57 H13         -5.4000    -0.0790    -2.3090 h1         1 7O7       0.057700
     58 H14         -6.4400    -1.1840    -3.2200 h1         1 7O7       0.057700
     59 H15         -0.0290     3.5800     2.5000 h1         1 7O7       0.065200
     60 H16          0.0330     4.2460     0.8760 h1         1 7O7       0.065200
     61 H17          1.9790     5.6550     1.5390 hc         1 7O7       0.048700
     62 H18         -0.3890     5.9240     3.4540 hc         1 7O7       0.037200
     63 H19          0.7770     7.1990     3.0370 hc         1 7O7       0.037200
     64 H20         -0.3090     6.5520     1.7930 hc         1 7O7       0.037200
     65 H21          3.0280     4.1780     3.2670 hc         1 7O7       0.037200
     66 H22          2.7150     5.7950     3.9180 hc         1 7O7       0.037200
     67 H23          1.6420     4.4440     4.3450 hc         1 7O7       0.037200
     68 H24          0.6380     1.3030     2.4300 h1         1 7O7       0.058200
     69 H25          1.6340     0.6930     1.1550 h1         1 7O7       0.058200
     70 H26         -1.1450     1.9440     0.9730 h1         1 7O7       0.081700
     71 H27         -1.1000    -0.3650     1.7550 h1         1 7O7       0.082700
     72 H28          7.8130    -6.5690    -0.7430 hc         1 7O7       0.081200
     73 H29          8.7620    -5.2170     0.0460 hc         1 7O7       0.081200
     74 H30          0.9070    -1.2960     0.6560 hc         1 7O7       0.058200
     75 H31          0.1890    -1.0850    -0.9250 hc         1 7O7       0.058200
     76 H32         -2.3210    -5.0350    -1.6350 ha         1 7O7       0.111000
     77 H33         -1.2300    -5.1640     2.5400 ha         1 7O7       0.111000
     78 H34         -2.2920    -6.2310     0.5530 ha         1 7O7       0.111000
     79 H35          8.2900    -3.7260    -1.9350 hc         1 7O7       0.081200
     80 H36          7.3490    -5.0820    -2.7300 hc         1 7O7       0.081200
     81 H37         -5.5760    -2.1920     0.6670 h1         1 7O7       0.063700
     82 H38         -6.9680    -2.4160    -1.2240 hc         1 7O7       0.067700
     83 H39         -8.9400    -1.0150    -0.8460 hc         1 7O7       0.078700
     84 H40          5.7470    -5.1300    -0.7870 h1         1 7O7       0.092700
     85 H41         -6.0030    -0.2900     2.1980 hc         1 7O7       0.087700
     86 H42         -2.4000     0.1000    -0.8910 hn         1 7O7       0.332500
     87 H44          0.3480     2.4010    -0.9010 ho         1 7O7       0.470000
     88 C21         -3.4150    -0.7790     0.6240 c          1 7O7       0.641100
@<TRIPOS>BOND
     1     1     8 2   
     2     1     9 1   
     3     1    44 1   
     4     2     3 ar  
     5     2     8 1   
     6     2    29 ar  
     7     3     4 ar  
     8     3    46 1   
     9     4     5 ar  
    10     4    47 1   
    11     5     6 ar  
    12     5    45 1   
    13     6    29 ar  
    14     6    48 1   
    15     7    32 1   
    16     7    37 1   
    17     7    40 1   
    18     7    49 1   
    19     9    33 1   
    20     9    50 1   
    21    10    34 1   
    22    10    37 1   
    23    10    51 1   
    24    10    52 1   
    25    11    12 ar  
    26    11    25 ar  
    27    11    53 1   
    28    12    13 ar  
    29    12    24 1   
    30    13    26 ar  
    31    13    54 1   
    32    14    32 1   
    33    14    34 1   
    34    14    55 1   
    35    14    56 1   
    36    15    31 1   
    37    15    40 1   
    38    15    57 1   
    39    15    58 1   
    40    16    17 1   
    41    16    35 1   
    42    16    59 1   
    43    16    60 1   
    44    17    18 1   
    45    17    19 1   
    46    17    61 1   
    47    18    62 1   
    48    18    63 1   
    49    18    64 1   
    50    19    65 1   
    51    19    66 1   
    52    19    67 1   
    53    20    21 1   
    54    20    35 1   
    55    20    68 1   
    56    20    69 1   
    57    21    22 1   
    58    21    39 1   
    59    21    70 1   
    60    22    24 1   
    61    22    36 1   
    62    22    71 1   
    63    23    28 1   
    64    23    33 1   
    65    23    72 1   
    66    23    73 1   
    67    24    74 1   
    68    24    75 1   
    69    25    27 ar  
    70    25    76 1   
    71    26    27 ar  
    72    26    77 1   
    73    27    78 1   
    74    28    33 1   
    75    28    79 1   
    76    28    80 1   
    77    29    44 1   
    78    30    31 1   
    79    30    34 1   
    80    30    42 1   
    81    30    81 1   
    82    31    32 1   
    83    31    82 1   
    84    32    83 1   
    85    33    84 1   
    86    34    85 1   
    87    35    45 1   
    88    36    86 1   
    89    36    88 1   
    90    38    45 2   
    91    39    87 1   
    92    41    88 2   
    93    42    88 1   
    94    43    45 2   
@<TRIPOS>SUBSTRUCTURE
     1 7O7         1 TEMP              0 ****  ****    0 ROOT
