@<TRIPOS>MOLECULE
7O7
   88    94     1     0     0
SMALL
abcg2


@<TRIPOS>ATOM
      1 C1           8.1080    -0.3690     0.5290 cc         1 7O7       0.670100
      2 C2           6.0420    -0.7140    -0.1160 ca         1 7O7       0.200400
      3 C3           4.8730    -1.4080    -0.4310 ca         1 7O7      -0.106000
      4 C4           3.7690    -0.7130    -0.8820 ca         1 7O7      -0.013000
      5 C5           3.8150     0.6770    -1.0160 ca         1 7O7      -0.311500
      6 C6           4.9680     1.3950    -0.7310 ca         1 7O7       0.049000
      7 C7          -8.7000     1.6050     0.1250 c5         1 7O7       0.395300
      8 N1           7.1980    -1.2750     0.3430 nd         1 7O7      -0.639100
      9 N2           9.3470    -0.6110     0.9640 nu         1 7O7      -0.854400
     10 C8          -6.9000     1.6740     1.7960 c6         1 7O7       0.189600
     11 C06         -3.7470    -2.8260    -1.4590 ca         1 7O7      -0.100500
     12 C07         -2.5450    -2.6790    -0.7730 ca         1 7O7      -0.085300
     13 C08         -2.2360    -3.5930     0.2320 ca         1 7O7      -0.100500
     14 C10         -8.5450    -0.1270     2.0000 c5         1 7O7      -0.072400
     15 C11         -7.7680     0.3550    -1.5370 c5         1 7O7       0.163600
     16 C12          1.4550     2.7480     0.7330 c3         1 7O7       0.228800
     17 C13          2.6620     2.7380     1.6690 c3         1 7O7      -0.086700
     18 C14          2.5710     3.9410     2.6010 c3         1 7O7      -0.087100
     19 C15          2.7790     1.4390     2.4550 c3         1 7O7      -0.087100
     20 C16          0.4490     0.5350     0.0790 c3         1 7O7       0.196800
     21 C17         -0.9870     0.8620    -0.3380 c3         1 7O7       0.153300
     22 C19         -1.9100    -0.3430    -0.1010 c3         1 7O7       0.095700
     23 C29         11.1880    -2.2870     1.0790 cx         1 7O7      -0.126900
     24 C32         -1.6330    -1.5190    -1.0550 c3         1 7O7      -0.061100
     25 C33         -4.6290    -3.8500    -1.1400 ca         1 7O7      -0.106500
     26 C34         -3.1090    -4.6230     0.5490 ca         1 7O7      -0.106500
     27 C35         -4.3130    -4.7510    -0.1330 ca         1 7O7      -0.107000
     28 C36         10.0870    -2.9170     0.2830 cx         1 7O7      -0.126900
     29 C39          6.0630     0.6840    -0.2830 ca         1 7O7      -0.226000
     30 C49         -6.6270    -0.5980     0.6750 c5         1 7O7       0.206300
     31 C59         -7.8470    -0.5340    -0.2890 c5         1 7O7      -0.099700
     32 C69         -8.9240     0.1550     0.5590 c5         1 7O7      -0.135700
     33 C79          9.7660    -1.9190     1.3490 cx         1 7O7       0.162500
     34 C9          -7.0520     0.1710     1.9370 c5         1 7O7      -0.130700
     35 N11          1.3710     1.6250    -0.1980 n3         1 7O7      -0.788500
     36 N20         -3.2850     0.0840    -0.2270 ns         1 7O7      -0.480900
     37 O1          -7.5210     2.1880     0.6340 os         1 7O7      -0.488000
     38 O10          2.7380     2.9010    -1.8540 o          1 7O7      -0.546500
     39 O18         -1.0900     1.3510    -1.6510 oh         1 7O7      -0.662000
     40 O2          -8.5450     1.5220    -1.2530 os         1 7O7      -0.444000
     41 O22         -4.1160    -0.9800     1.6120 o          1 7O7      -0.541000
     42 O23         -5.4660    -0.0900     0.0400 os         1 7O7      -0.449100
     43 O9           1.6840     0.7030    -2.4930 o          1 7O7      -0.546500
     44 S1           7.6310     1.2890     0.1570 ss         1 7O7      -0.028200
     45 S8           2.3530     1.5440    -1.5020 sy         1 7O7       1.197600
     46 H1           4.8400    -2.4840    -0.3270 ha         1 7O7       0.135000
     47 H2           2.8740    -1.2640    -1.1400 ha         1 7O7       0.126000
     48 H3           5.0130     2.4680    -0.8560 ha         1 7O7       0.147000
     49 H4          -9.5540     2.2590     0.3320 h2         1 7O7       0.086700
     50 H5           9.9450     0.1670     1.1940 hn         1 7O7       0.511000
     51 H6          -7.3080     2.1470     2.7000 h1         1 7O7       0.046700
     52 H7          -5.8510     1.9700     1.7350 h1         1 7O7       0.046700
     53 H9          -3.9980    -2.1300    -2.2520 ha         1 7O7       0.109000
     54 H10         -1.3030    -3.4940     0.7760 ha         1 7O7       0.109000
     55 H11         -9.0690     0.4960     2.7270 hc         1 7O7       0.056700
     56 H12         -8.7480    -1.1700     2.2540 hc         1 7O7       0.056700
     57 H13         -6.7470     0.6270    -1.8110 h1         1 7O7       0.057700
     58 H14         -8.2200    -0.1430    -2.3960 h1         1 7O7       0.057700
     59 H15          0.5380     2.7110     1.3270 h1         1 7O7       0.065200
     60 H16          1.4170     3.6870     0.1810 h1         1 7O7       0.065200
     61 H17          3.5670     2.8550     1.0630 hc         1 7O7       0.048700
     62 H18          1.6880     3.8720     3.2410 hc         1 7O7       0.037200
     63 H19          3.4460     3.9980     3.2490 hc         1 7O7       0.037200
     64 H20          2.5080     4.8780     2.0450 hc         1 7O7       0.037200
     65 H21          2.8720     0.5700     1.8020 hc         1 7O7       0.037200
     66 H22          3.6610     1.4570     3.0980 hc         1 7O7       0.037200
     67 H23          1.9070     1.2890     3.0970 hc         1 7O7       0.037200
     68 H24          0.4640     0.3230     1.1500 h1         1 7O7       0.058200
     69 H25          0.8010    -0.3780    -0.4020 h1         1 7O7       0.058200
     70 H26         -1.3500     1.6640     0.3140 h1         1 7O7       0.081700
     71 H27         -1.7610    -0.6760     0.9290 h1         1 7O7       0.082700
     72 H28         11.7000    -2.8800     1.8250 hc         1 7O7       0.081200
     73 H29         11.8100    -1.5520     0.5840 hc         1 7O7       0.081200
     74 H30         -0.5940    -1.8420    -0.9580 hc         1 7O7       0.058200
     75 H31         -1.7700    -1.1850    -2.0870 hc         1 7O7       0.058200
     76 H32         -5.5620    -3.9440    -1.6800 ha         1 7O7       0.111000
     77 H33         -2.8510    -5.3270     1.3300 ha         1 7O7       0.111000
     78 H34         -4.9980    -5.5510     0.1170 ha         1 7O7       0.111000
     79 H35          9.9660    -2.6030    -0.7450 hc         1 7O7       0.081200
     80 H36          9.8320    -3.9510     0.4750 hc         1 7O7       0.081200
     81 H37         -6.4540    -1.6420     0.9470 h1         1 7O7       0.063700
     82 H38         -8.1320    -1.5480    -0.5710 hc         1 7O7       0.067700
     83 H39         -9.9410    -0.1400     0.2930 hc         1 7O7       0.078700
     84 H40          9.3150    -2.2940     2.2630 h1         1 7O7       0.092700
     85 H41         -6.5030    -0.1560     2.8210 hc         1 7O7       0.087700
     86 H42         -3.5560     0.4610    -1.1240 hn         1 7O7       0.332500
     87 H44         -0.4360     0.9200    -2.2130 ho         1 7O7       0.470000
     88 C21         -4.2710    -0.3930     0.5640 c          1 7O7       0.641100
@<TRIPOS>BOND
     1     1     8 2   
     2     1     9 1   
     3     1    44 1   
     4     2     3 ar  
     5     2     8 1   
     6     2    29 ar  
     7     3     4 ar  
     8     3    46 1   
     9     4     5 ar  
    10     4    47 1   
    11     5     6 ar  
    12     5    45 1   
    13     6    29 ar  
    14     6    48 1   
    15     7    32 1   
    16     7    37 1   
    17     7    40 1   
    18     7    49 1   
    19     9    33 1   
    20     9    50 1   
    21    10    34 1   
    22    10    37 1   
    23    10    51 1   
    24    10    52 1   
    25    11    12 ar  
    26    11    25 ar  
    27    11    53 1   
    28    12    13 ar  
    29    12    24 1   
    30    13    26 ar  
    31    13    54 1   
    32    14    32 1   
    33    14    34 1   
    34    14    55 1   
    35    14    56 1   
    36    15    31 1   
    37    15    40 1   
    38    15    57 1   
    39    15    58 1   
    40    16    17 1   
    41    16    35 1   
    42    16    59 1   
    43    16    60 1   
    44    17    18 1   
    45    17    19 1   
    46    17    61 1   
    47    18    62 1   
    48    18    63 1   
    49    18    64 1   
    50    19    65 1   
    51    19    66 1   
    52    19    67 1   
    53    20    21 1   
    54    20    35 1   
    55    20    68 1   
    56    20    69 1   
    57    21    22 1   
    58    21    39 1   
    59    21    70 1   
    60    22    24 1   
    61    22    36 1   
    62    22    71 1   
    63    23    28 1   
    64    23    33 1   
    65    23    72 1   
    66    23    73 1   
    67    24    74 1   
    68    24    75 1   
    69    25    27 ar  
    70    25    76 1   
    71    26    27 ar  
    72    26    77 1   
    73    27    78 1   
    74    28    33 1   
    75    28    79 1   
    76    28    80 1   
    77    29    44 1   
    78    30    31 1   
    79    30    34 1   
    80    30    42 1   
    81    30    81 1   
    82    31    32 1   
    83    31    82 1   
    84    32    83 1   
    85    33    84 1   
    86    34    85 1   
    87    35    45 1   
    88    36    86 1   
    89    36    88 1   
    90    38    45 2   
    91    39    87 1   
    92    41    88 2   
    93    42    88 1   
    94    43    45 2   
@<TRIPOS>SUBSTRUCTURE
     1 7O7         1 TEMP              0 ****  ****    0 ROOT
