@<TRIPOS>MOLECULE
7O8
   28    29     1     0     0
SMALL
No Charge or Current Charge


@<TRIPOS>ATOM
      1 Cl          -7.3410    -0.0620    -0.0940 cl         1 7O8      -0.196000
      2 C17         -5.5860    -0.1670    -0.0780 ca         1 7O8       0.129000
      3 C16         -4.8470     0.2690    -1.1910 ca         1 7O8      -0.103500
      4 C15         -3.4430     0.1860    -1.1790 ca         1 7O8      -0.081500
      5 C18         -4.9240    -0.6840     1.0470 ca         1 7O8      -0.103500
      6 C19         -3.5200    -0.7670     1.0610 ca         1 7O8      -0.081500
      7 C14         -2.7740    -0.3340    -0.0530 ca         1 7O8      -0.087300
      8 C13         -1.2540    -0.4200    -0.0380 c3         1 7O8       0.084900
      9 S12         -0.5220     1.1320     0.6400 ss         1 7O8      -0.087000
     10 C10          1.2030     0.8280     0.4770 cc         1 7O8      -0.221000
     11 C9           1.9950     1.8100    -0.0510 cd         1 7O8      -0.149000
     12 C8           3.3360     1.3660    -0.2180 cd         1 7O8       0.021000
     13 S11          2.0340    -0.7030     0.7110 ss         1 7O8       0.329000
     14 C7           3.5250     0.0550     0.1690 cc         1 7O8      -0.454500
     15 S1           5.0270    -0.8570     0.0950 sy         1 7O8       1.181600
     16 O2           4.7580    -2.2930     0.1540 o          1 7O8      -0.545500
     17 O3           5.9230    -0.2360    -0.8750 o          1 7O8      -0.545500
     18 N4           5.6600    -0.4550     1.5380 n8         1 7O8      -1.013100
     19 H1          -5.3620     0.6700    -2.0600 ha         1 7O8       0.133500
     20 H2          -2.8770     0.5280    -2.0430 ha         1 7O8       0.123000
     21 H3          -5.4980    -1.0180     1.9070 ha         1 7O8       0.133500
     22 H4          -3.0140    -1.1660     1.9370 ha         1 7O8       0.123000
     23 H5          -0.9340    -1.2680     0.5790 h1         1 7O8       0.078200
     24 H6          -0.8770    -0.5740    -1.0570 h1         1 7O8       0.078200
     25 H8           1.6480     2.8050    -0.3140 ha         1 7O8       0.147000
     26 H10          4.1260     1.9990    -0.6180 ha         1 7O8       0.153000
     27 H13          6.5460    -0.0520     1.2420 hn         1 7O8       0.475500
     28 H14          5.0910     0.3520     1.7780 hn         1 7O8       0.475500
@<TRIPOS>BOND
     1     1     2 1   
     2     2     3 ar  
     3     2     5 ar  
     4     3     4 ar  
     5     3    19 1   
     6     4     7 ar  
     7     4    20 1   
     8     5     6 ar  
     9     5    21 1   
    10     6     7 ar  
    11     6    22 1   
    12     7     8 1   
    13     8     9 1   
    14     8    23 1   
    15     8    24 1   
    16     9    10 1   
    17    10    11 2   
    18    10    13 1   
    19    11    12 1   
    20    11    25 1   
    21    12    14 2   
    22    12    26 1   
    23    13    14 1   
    24    14    15 1   
    25    15    16 2   
    26    15    17 2   
    27    15    18 1   
    28    18    27 1   
    29    18    28 1   
@<TRIPOS>SUBSTRUCTURE
     1 7O8         1 TEMP              0 ****  ****    0 ROOT
