@<TRIPOS>MOLECULE
7O8
   28    29     1     0     0
SMALL
bcc


@<TRIPOS>ATOM
      1 CL          -7.1840    -0.1780    -0.0910 cl         1 7O8      -0.104400
      2 C17         -5.4540    -0.2670    -0.0500 ca         1 7O8       0.037400
      3 C16         -4.7380    -0.1490    -1.2330 ca         1 7O8      -0.121500
      4 C15         -3.3550    -0.2210    -1.1910 ca         1 7O8      -0.099500
      5 C18         -4.8110    -0.4560     1.1630 ca         1 7O8      -0.121500
      6 C19         -3.4260    -0.5260     1.1860 ca         1 7O8      -0.099500
      7 C14         -2.6860    -0.4150     0.0140 ca         1 7O8      -0.087300
      8 C13         -1.1890    -0.4610     0.0490 c3         1 7O8       0.037000
      9 S12         -0.6130     1.2650     0.2010 ss         1 7O8      -0.166000
     10 C10          1.1140     1.1090     0.0820 cc         1 7O8       0.050800
     11 C9           1.9840     2.1580    -0.0770 cd         1 7O8      -0.167000
     12 C8           3.3310     1.7410    -0.1220 cd         1 7O8       0.003000
     13 S11          1.9390    -0.3990     0.1840 ss         1 7O8       0.039200
     14 C7           3.4580     0.3890     0.0020 cc         1 7O8      -0.309600
     15 S1           4.9390    -0.5240    -0.0650 sy         1 7O8       1.323200
     16 O2           4.7170    -1.7360    -0.8370 o          1 7O8      -0.616300
     17 O3           5.9790     0.4020    -0.4840 o          1 7O8      -0.616300
     18 N4           5.0990    -1.0170     1.4990 n8         1 7O8      -0.902700
     19 H1          -5.2490    -0.0010    -2.1740 ha         1 7O8       0.151500
     20 H2          -2.7920    -0.1280    -2.1120 ha         1 7O8       0.141000
     21 H3          -5.3780    -0.5480     2.0790 ha         1 7O8       0.151500
     22 H4          -2.9210    -0.6780     2.1320 ha         1 7O8       0.141000
     23 H5          -0.8330    -1.0380     0.9020 h1         1 7O8       0.078200
     24 H6          -0.7850    -0.8900    -0.8700 h1         1 7O8       0.078200
     25 H8           1.6660     3.1870    -0.1670 ha         1 7O8       0.165000
     26 H10          4.1650     2.4150    -0.2490 ha         1 7O8       0.171000
     27 H13          5.7170    -1.8200     1.5790 hn         1 7O8       0.420300
     28 H14          5.4020    -0.2730     2.1190 hn         1 7O8       0.420300
@<TRIPOS>BOND
     1     1     2 1   
     2     2     3 ar  
     3     2     5 ar  
     4     3     4 ar  
     5     3    19 1   
     6     4     7 ar  
     7     4    20 1   
     8     5     6 ar  
     9     5    21 1   
    10     6     7 ar  
    11     6    22 1   
    12     7     8 1   
    13     8     9 1   
    14     8    23 1   
    15     8    24 1   
    16     9    10 1   
    17    10    11 2   
    18    10    13 1   
    19    11    12 1   
    20    11    25 1   
    21    12    14 2   
    22    12    26 1   
    23    13    14 1   
    24    14    15 1   
    25    15    16 2   
    26    15    17 2   
    27    15    18 1   
    28    18    27 1   
    29    18    28 1   
@<TRIPOS>SUBSTRUCTURE
     1 7O8         1 TEMP              0 ****  ****    0 ROOT
