@<TRIPOS>MOLECULE
7O9
   45    46     1     0     0
SMALL
bcc


@<TRIPOS>ATOM
      1 C           -5.3520     0.8270     2.0860 c          1 7O9       0.907600
      2 F2           7.6760    -0.1120     0.4330 f          1 7O9      -0.241633
      3 F            7.0680     1.0630     2.1280 f          1 7O9      -0.241633
      4 F1           7.2220     1.9770     0.1880 f          1 7O9      -0.241633
      5 C12          5.4100     0.5210     0.5590 ca         1 7O9      -0.198300
      6 C11          4.4860     1.5370     0.3470 ca         1 7O9      -0.096000
      7 C10          3.1510     1.2260     0.1590 ca         1 7O9      -0.099500
      8 C14          4.9930    -0.8030     0.5870 ca         1 7O9      -0.096000
      9 C15          3.6570    -1.1100     0.3850 ca         1 7O9      -0.099500
     10 C9           2.7260    -0.1000     0.1620 ca         1 7O9      -0.099600
     11 C8           1.2630    -0.3640    -0.0260 c          1 7O9       0.659700
     12 O5           0.4360     0.4580     0.3240 o          1 7O9      -0.506100
     13 C7          -0.2970    -2.1290    -0.8080 ca         1 7O9       0.035600
     14 C6          -1.4820    -1.3990    -0.8460 ca         1 7O9      -0.081000
     15 C16         -0.3290    -3.5130    -0.9980 ca         1 7O9      -0.209000
     16 C17         -1.5360    -4.1550    -1.2050 ca         1 7O9      -0.132000
     17 C18         -2.7230    -3.4330    -1.2140 ca         1 7O9      -0.160000
     18 C5          -2.6960    -2.0560    -1.0400 ca         1 7O9      -0.017300
     19 C4          -3.9650    -1.2510    -1.0950 c3         1 7O9       0.197700
     20 C2          -4.7350     0.8710    -0.3630 c3         1 7O9       0.020100
     21 C3          -4.2240     1.7520    -1.5250 c          1 7O9       0.918600
     22 O3          -3.0870     1.5370    -1.9810 o          1 7O9      -0.861800
     23 O2          -5.0270     2.6330    -1.8990 o          1 7O9      -0.861800
     24 C1          -4.7640     1.6790     0.9320 c3         1 7O9       0.042500
     25 N1          -3.4540     2.2600     1.1870 n8         1 7O9      -0.868800
     26 O1          -6.4740     0.3200     1.8760 o          1 7O9      -0.870800
     27 O           -4.6920     0.7450     3.1410 o          1 7O9      -0.870800
     28 H1           4.7900     2.5750     0.3270 ha         1 7O9       0.140500
     29 H2           2.4370     2.0230     0.0020 ha         1 7O9       0.157500
     30 H3           5.6940    -1.6070     0.7670 ha         1 7O9       0.140500
     31 H4           3.3580    -2.1490     0.4350 ha         1 7O9       0.157500
     32 H5           1.7420    -2.1290    -0.8880 hn         1 7O9       0.296500
     33 H6          -1.4840    -0.3260    -0.7450 ha         1 7O9       0.219000
     34 H7           0.5910    -4.0850    -0.9730 ha         1 7O9       0.095000
     35 H8          -1.5510    -5.2280    -1.3430 ha         1 7O9       0.101000
     36 H9          -3.6670    -3.9460    -1.3550 ha         1 7O9       0.122000
     37 H10         -4.0600    -0.8220    -2.0980 h1         1 7O9       0.025700
     38 H11         -4.8320    -1.9150    -0.9560 h1         1 7O9       0.025700
     39 H12         -5.7650     0.5610    -0.5840 h1         1 7O9       0.035700
     40 H14         -5.4750     2.4970     0.7630 h1         1 7O9       0.059700
     41 H15         -3.4040     2.4860     2.1730 hn         1 7O9       0.321300
     42 H16         -2.7500     1.5430     1.0550 hn         1 7O9       0.321300
     43 O4          -3.9290    -0.2580    -0.1110 os         1 7O9      -0.393600
     44 N            0.9660    -1.5500    -0.6070 ns         1 7O9      -0.466100
     45 C13          6.8450     0.8610     0.8210 c3         1 7O9       0.718200
@<TRIPOS>BOND
     1     1    24 1   
     2     1    26 1   
     3     1    27 1   
     4     2    45 1   
     5     3    45 1   
     6     4    45 1   
     7     5     6 ar  
     8     5     8 ar  
     9     5    45 1   
    10     6     7 ar  
    11     6    28 1   
    12     7    10 ar  
    13     7    29 1   
    14     8     9 ar  
    15     8    30 1   
    16     9    10 ar  
    17     9    31 1   
    18    10    11 1   
    19    11    12 2   
    20    11    44 1   
    21    13    14 ar  
    22    13    15 ar  
    23    13    44 1   
    24    14    18 ar  
    25    14    33 1   
    26    15    16 ar  
    27    15    34 1   
    28    16    17 ar  
    29    16    35 1   
    30    17    18 ar  
    31    17    36 1   
    32    18    19 1   
    33    19    37 1   
    34    19    38 1   
    35    19    43 1   
    36    20    21 1   
    37    20    24 1   
    38    20    39 1   
    39    20    43 1   
    40    21    22 1   
    41    21    23 1   
    42    24    25 1   
    43    24    40 1   
    44    25    41 1   
    45    25    42 1   
    46    32    44 1   
@<TRIPOS>SUBSTRUCTURE
     1 7O9         1 TEMP              0 ****  ****    0 ROOT
