@<TRIPOS>MOLECULE
7O9
   45    46     1     0     0
SMALL
No Charge or Current Charge


@<TRIPOS>ATOM
      1 C           -6.5550     0.2580     1.6630 c          1 7O9       0.697000
      2 F2           8.2070    -0.6500     0.5090 f          1 7O9      -0.120333
      3 F            7.6710     0.7980     2.0400 f          1 7O9      -0.120333
      4 F1           8.0760     1.4560     0.0080 f          1 7O9      -0.120333
      5 C12          6.0070     0.3040     0.4050 ca         1 7O9      -0.198300
      6 C11          5.2350     1.4000    -0.0320 ca         1 7O9      -0.078000
      7 C10          3.8710     1.2420    -0.3280 ca         1 7O9      -0.081500
      8 C14          5.3790    -0.9500     0.5540 ca         1 7O9      -0.078000
      9 C15          4.0140    -1.1100     0.2580 ca         1 7O9      -0.081500
     10 C9           3.2370    -0.0140    -0.1910 ca         1 7O9      -0.099600
     11 C8           1.7590    -0.1460    -0.5210 c          1 7O9       0.592700
     12 O5           1.1060     0.8170    -0.9050 o          1 7O9      -0.506100
     13 C7          -0.1010    -1.9300    -0.5510 ca         1 7O9      -0.057000
     14 C6          -1.2240    -1.1250    -0.8560 ca         1 7O9      -0.063000
     15 C16         -0.2760    -3.3180    -0.4120 ca         1 7O9      -0.191000
     16 C17         -1.5420    -3.9010    -0.5780 ca         1 7O9      -0.114000
     17 C18         -2.6500    -3.0980    -0.8850 ca         1 7O9      -0.142000
     18 C5          -2.4970    -1.7050    -1.0250 ca         1 7O9      -0.017300
     19 C4          -3.6970    -0.8260    -1.3620 c3         1 7O9       0.220900
     20 C2          -5.1550     0.8900    -0.3930 c3         1 7O9       0.043300
     21 C3          -4.8950     2.1110    -1.3540 c          1 7O9       0.708000
     22 O3          -3.7620     2.3500    -1.7560 o          1 7O9      -0.756500
     23 O2          -5.8700     2.7350    -1.7570 o          1 7O9      -0.756500
     24 C1          -5.6270     1.3670     1.0170 c3         1 7O9       0.042500
     25 N1          -4.4740     1.8630     1.8680 n8         1 7O9      -0.979200
     26 O1          -7.7150     0.1800     1.2800 o          1 7O9      -0.765500
     27 O           -6.1360    -0.3860     2.6180 o          1 7O9      -0.765500
     28 H1           5.6890     2.3830    -0.1420 ha         1 7O9       0.122500
     29 H2           3.3060     2.1090    -0.6650 ha         1 7O9       0.139500
     30 H3           5.9470    -1.8100     0.9030 ha         1 7O9       0.122500
     31 H4           3.5780    -2.0980     0.3880 ha         1 7O9       0.139500
     32 H5           1.8760    -2.1170    -0.0580 hn         1 7O9       0.130000
     33 H6          -1.1380    -0.0470    -0.9580 ha         1 7O9       0.201000
     34 H7           0.5750    -3.9530    -0.1740 ha         1 7O9       0.077000
     35 H8          -1.6640    -4.9770    -0.4690 ha         1 7O9       0.083000
     36 H9          -3.6280    -3.5570    -1.0120 ha         1 7O9       0.104000
     37 H10         -3.4510    -0.2080    -2.2340 h1         1 7O9       0.025700
     38 H11         -4.5530    -1.4580    -1.6320 h1         1 7O9       0.025700
     39 H12         -5.9890     0.3360    -0.8450 h1         1 7O9       0.035700
     40 H14         -6.2970     2.2260     0.8680 h1         1 7O9       0.059700
     41 H15         -4.7940     1.9160     2.8420 hn         1 7O9       0.376500
     42 H16         -3.7800     1.1070     1.8930 hn         1 7O9       0.376500
     43 O4          -4.0170    -0.0100    -0.2180 os         1 7O9      -0.440000
     44 N            1.2140    -1.4180    -0.3640 ns         1 7O9      -0.140000
     45 C13          7.4940     0.4770     0.7390 c3         1 7O9       0.354300
@<TRIPOS>BOND
     1     1    24 1   
     2     1    26 1   
     3     1    27 1   
     4     2    45 1   
     5     3    45 1   
     6     4    45 1   
     7     5     6 ar  
     8     5     8 ar  
     9     5    45 1   
    10     6     7 ar  
    11     6    28 1   
    12     7    10 ar  
    13     7    29 1   
    14     8     9 ar  
    15     8    30 1   
    16     9    10 ar  
    17     9    31 1   
    18    10    11 1   
    19    11    12 2   
    20    11    44 1   
    21    13    14 ar  
    22    13    15 ar  
    23    13    44 1   
    24    14    18 ar  
    25    14    33 1   
    26    15    16 ar  
    27    15    34 1   
    28    16    17 ar  
    29    16    35 1   
    30    17    18 ar  
    31    17    36 1   
    32    18    19 1   
    33    19    37 1   
    34    19    38 1   
    35    19    43 1   
    36    20    21 1   
    37    20    24 1   
    38    20    39 1   
    39    20    43 1   
    40    21    22 1   
    41    21    23 1   
    42    24    25 1   
    43    24    40 1   
    44    25    41 1   
    45    25    42 1   
    46    32    44 1   
@<TRIPOS>SUBSTRUCTURE
     1 7O9         1 TEMP              0 ****  ****    0 ROOT
