@<TRIPOS>MOLECULE
7OA
   88    94     1     0     0
SMALL
No Charge or Current Charge


@<TRIPOS>ATOM
      1 C06        -14.4710    14.3200     0.6010 ca         1 7OA      -0.155000
      2 C07        -13.2430    14.2770    -0.0910 ca         1 7OA      -0.031300
      3 C08        -12.7440    13.0330    -0.5240 ca         1 7OA      -0.155000
      4 C1          -6.6550    17.7980    -7.9940 cc         1 7OA       0.670100
      5 C10         -8.9800    15.1250     6.9690 c5         1 7OA      -0.067400
      6 C11        -12.5690    14.8810     6.3860 c5         1 7OA       0.171600
      7 C12         -7.1790    16.9100    -1.5580 c3         1 7OA       0.210800
      8 C13         -6.5550    17.5420    -0.2780 c3         1 7OA      -0.060700
      9 C14         -7.2000    18.8740     0.1780 c3         1 7OA      -0.087100
     10 C15         -6.4110    16.5290     0.8830 c3         1 7OA      -0.087100
     11 C16         -9.6550    17.0690    -1.1850 c3         1 7OA       0.218800
     12 C17        -10.3040    16.9380     0.2270 c3         1 7OA       0.158300
     13 C19        -11.1390    15.6380     0.4550 c3         1 7OA       0.090700
     14 C2          -8.1930    17.2810    -6.5410 ca         1 7OA       0.203400
     15 C29         -3.8570    19.3010    -9.1000 cx         1 7OA      -0.123900
     16 C3          -9.4550    17.2200    -5.9350 ca         1 7OA      -0.104000
     17 C32        -12.4600    15.5590    -0.3610 c3         1 7OA      -0.047100
     18 C33        -15.1790    13.1350     0.8560 ca         1 7OA       0.187500
     19 C34        -13.4600    11.8540    -0.2650 ca         1 7OA       0.187500
     20 C35        -14.6780    11.8990     0.4260 ca         1 7OA      -0.190000
     21 C36         -4.4370    19.5880   -10.4630 cx         1 7OA      -0.123900
     22 C39         -7.1180    16.6420    -5.9550 ca         1 7OA      -0.229000
     23 C4          -9.6130    16.5100    -4.7290 ca         1 7OA      -0.011000
     24 C49        -10.3050    14.4490     5.1070 c5         1 7OA       0.187300
     25 C5          -8.5020    15.8650    -4.1330 ca         1 7OA      -0.337500
     26 C59        -11.1610    14.2110     6.4140 c5         1 7OA      -0.107700
     27 C6          -7.2380    15.9240    -4.7570 ca         1 7OA       0.045000
     28 C69        -10.4480    15.0580     7.5010 c5         1 7OA      -0.125700
     29 C7         -11.1660    16.4680     7.3930 c5         1 7OA       0.382300
     30 C79         -4.8820    18.3690    -9.6950 cx         1 7OA       0.143500
     31 C9          -9.2640    15.5590     5.5070 c5         1 7OA      -0.113700
     32 F1         -16.3530    13.1860     1.5220 f          1 7OA      -0.181500
     33 F2         -12.9710    10.6670    -0.6840 f          1 7OA      -0.181500
     34 N1          -7.9440    17.9590    -7.7300 nd         1 7OA      -0.652100
     35 N11         -8.4720    16.1850    -1.4110 n3         1 7OA      -0.745500
     36 N20        -11.4230    15.4430     1.8850 ns         1 7OA      -0.491900
     37 O1         -10.3350    17.4360     6.7080 os         1 7OA      -0.461000
     38 O18        -11.1080    18.1030     0.5110 oh         1 7OA      -0.672000
     39 O2         -12.3430    16.2930     6.5780 os         1 7OA      -0.481000
     40 O23        -11.1490    14.8930     4.0110 os         1 7OA      -0.464100
     41 S1          -5.6410    16.8460    -6.8830 ss         1 7OA      -0.012200
     42 S8          -8.6950    14.9660    -2.5870 sy         1 7OA       1.194600
     43 H1         -14.8780    15.2670     0.9460 ha         1 7OA       0.148000
     44 H2         -11.8020    12.9760    -1.0620 ha         1 7OA       0.148000
     45 H3          -8.3570    15.8420     7.5170 hc         1 7OA       0.061700
     46 H4          -8.4770    14.1510     7.0240 hc         1 7OA       0.061700
     47 H5         -13.1320    14.7050     5.4600 h1         1 7OA       0.055700
     48 H6         -13.1810    14.5170     7.2230 h1         1 7OA       0.055700
     49 H7          -7.2670    17.6860    -2.3310 h1         1 7OA       0.047700
     50 H8          -6.4150    16.2110    -1.9240 h1         1 7OA       0.047700
     51 H9          -5.5310    17.8100    -0.5690 hc         1 7OA       0.044700
     52 H10         -6.5570    19.3730     0.9130 hc         1 7OA       0.038867
     53 H11         -7.3290    19.5550    -0.6710 hc         1 7OA       0.038867
     54 H12         -8.1740    18.7170     0.6500 hc         1 7OA       0.038867
     55 H13         -5.8600    16.9740     1.7200 hc         1 7OA       0.038867
     56 H14         -7.3880    16.2040     1.2540 hc         1 7OA       0.038867
     57 H15         -5.8620    15.6390     0.5510 hc         1 7OA       0.038867
     58 H16        -10.4330    16.9150    -1.9420 h1         1 7OA       0.064200
     59 H17         -9.3570    18.1180    -1.3140 h1         1 7OA       0.064200
     60 H18         -9.4740    16.9070     0.9430 h1         1 7OA       0.061700
     61 H19        -10.5080    14.7970     0.1370 h1         1 7OA       0.108700
     62 H21         -4.1630    19.9370    -8.2730 hc         1 7OA       0.085200
     63 H22        -10.3050    17.7170    -6.3940 ha         1 7OA       0.136000
     64 H23        -12.2420    15.6280    -1.4320 hc         1 7OA       0.067700
     65 H24        -13.0830    16.4310    -0.1290 hc         1 7OA       0.067700
     66 H25        -15.2290    10.9850     0.6250 ha         1 7OA       0.147000
     67 H26         -5.1290    20.4220   -10.5530 hc         1 7OA       0.085200
     68 H27         -3.7990    19.4310   -11.3290 hc         1 7OA       0.085200
     69 H28        -10.5970    16.4620    -4.2660 ha         1 7OA       0.131000
     70 H29         -9.7970    13.5130     4.8280 h1         1 7OA       0.080700
     71 H30        -11.2130    13.1460     6.6680 hc         1 7OA       0.078700
     72 H31         -6.3680    15.4310    -4.3240 ha         1 7OA       0.142000
     73 H32        -10.5310    14.6310     8.5070 hc         1 7OA       0.076700
     74 H33        -11.4440    16.8440     8.3880 h2         1 7OA       0.092700
     75 H34         -4.5370    17.3910   -10.0430 h1         1 7OA       0.092700
     76 H38         -8.3650    15.5090     4.8830 hc         1 7OA       0.076700
     77 H40        -12.3470    15.6490     2.2400 hn         1 7OA       0.311500
     78 H42        -11.4310    18.0050     1.4340 ho         1 7OA       0.450000
     79 C21        -10.5370    14.9350     2.7910 c          1 7OA       0.632100
     80 N2          -6.1970    18.3900    -9.1270 nu         1 7OA      -0.854400
     81 O10         -7.5910    14.0180    -2.4090 o          1 7OA      -0.547000
     82 O22         -9.3970    14.5840     2.5320 o          1 7OA      -0.521000
     83 O9         -10.0850    14.5180    -2.4640 o          1 7OA      -0.547000
     84 C8          -9.7560    17.0300     5.4490 c6         1 7OA       0.162600
     85 H35         -8.9070    17.6960     5.2400 h1         1 7OA       0.057200
     86 H36        -10.4900    17.1770     4.6450 h1         1 7OA       0.057200
     87 H20         -2.8290    18.9500    -9.0480 hc         1 7OA       0.085200
     88 H39         -6.9640    18.8590    -9.6040 hn         1 7OA       0.515000
@<TRIPOS>BOND
     1     1     2 ar  
     2     1    18 ar  
     3     1    43 1   
     4     2     3 ar  
     5     2    17 1   
     6     3    19 ar  
     7     3    44 1   
     8     4    34 2   
     9     4    41 1   
    10     4    80 1   
    11     5    28 1   
    12     5    31 1   
    13     5    45 1   
    14     5    46 1   
    15     6    26 1   
    16     6    39 1   
    17     6    47 1   
    18     6    48 1   
    19     7     8 1   
    20     7    35 1   
    21     7    49 1   
    22     7    50 1   
    23     8     9 1   
    24     8    10 1   
    25     8    51 1   
    26     9    52 1   
    27     9    53 1   
    28     9    54 1   
    29    10    55 1   
    30    10    56 1   
    31    10    57 1   
    32    11    12 1   
    33    11    35 1   
    34    11    58 1   
    35    11    59 1   
    36    12    13 1   
    37    12    38 1   
    38    12    60 1   
    39    13    17 1   
    40    13    36 1   
    41    13    61 1   
    42    14    16 ar  
    43    14    22 ar  
    44    14    34 1   
    45    15    21 1   
    46    15    30 1   
    47    15    62 1   
    48    15    87 1   
    49    16    23 ar  
    50    16    63 1   
    51    17    64 1   
    52    17    65 1   
    53    18    20 ar  
    54    18    32 1   
    55    19    20 ar  
    56    19    33 1   
    57    20    66 1   
    58    21    30 1   
    59    21    67 1   
    60    21    68 1   
    61    22    27 ar  
    62    22    41 1   
    63    23    25 ar  
    64    23    69 1   
    65    24    26 1   
    66    24    31 1   
    67    24    40 1   
    68    24    70 1   
    69    25    27 ar  
    70    25    42 1   
    71    26    28 1   
    72    26    71 1   
    73    27    72 1   
    74    28    29 1   
    75    28    73 1   
    76    29    37 1   
    77    29    39 1   
    78    29    74 1   
    79    30    75 1   
    80    30    80 1   
    81    31    76 1   
    82    31    84 1   
    83    35    42 1   
    84    36    77 1   
    85    36    79 1   
    86    37    84 1   
    87    38    78 1   
    88    40    79 1   
    89    42    81 2   
    90    42    83 2   
    91    79    82 2   
    92    80    88 1   
    93    84    85 1   
    94    84    86 1   
@<TRIPOS>SUBSTRUCTURE
     1 7OA         1 TEMP              0 ****  ****    0 ROOT
