@<TRIPOS>MOLECULE
7OA
   88    94     1     0     0
SMALL
abcg2


@<TRIPOS>ATOM
      1 C06        -13.3400    14.5320     1.5170 ca         1 7OA      -0.155000
      2 C07        -12.5290    14.6480     0.3870 ca         1 7OA      -0.031300
      3 C08        -12.0870    13.4900    -0.2580 ca         1 7OA      -0.155000
      4 C1          -6.9950    17.3820    -8.4020 cc         1 7OA       0.670100
      5 C10         -9.8890    13.6460     7.0380 c5         1 7OA      -0.067400
      6 C11        -13.0470    14.7050     5.6030 c5         1 7OA       0.171600
      7 C12         -7.2010    17.7970    -1.7290 c3         1 7OA       0.210800
      8 C13         -6.5690    18.3800    -0.4550 c3         1 7OA      -0.060700
      9 C14         -7.1990    19.6900     0.0230 c3         1 7OA      -0.087100
     10 C15         -6.4520    17.3400     0.6590 c3         1 7OA      -0.087100
     11 C16         -9.7000    17.7810    -1.3860 c3         1 7OA       0.218800
     12 C17        -10.2150    17.7700     0.0550 c3         1 7OA       0.158300
     13 C19        -10.7290    16.4060     0.5340 c3         1 7OA       0.090700
     14 C2          -8.4230    16.9740    -6.7650 ca         1 7OA       0.203400
     15 C29         -4.1120    18.4980    -9.4180 cx         1 7OA      -0.123900
     16 C3          -9.6430    16.8770    -6.0890 ca         1 7OA      -0.104000
     17 C32        -12.0820    16.0040    -0.0880 c3         1 7OA      -0.047100
     18 C33        -13.6710    13.2740     1.9820 ca         1 7OA       0.187500
     19 C34        -12.4590    12.2600     0.2470 ca         1 7OA       0.187500
     20 C35        -13.2480    12.1060     1.3740 ca         1 7OA      -0.190000
     21 C36         -4.5500    18.6730   -10.8460 cx         1 7OA      -0.123900
     22 C39         -7.2350    16.6000    -6.0910 ca         1 7OA      -0.229000
     23 C4          -9.6650    16.4320    -4.7780 ca         1 7OA      -0.011000
     24 C49        -10.5600    14.3330     4.8780 c5         1 7OA       0.187300
     25 C5          -8.4730    16.0770    -4.1320 ca         1 7OA      -0.337500
     26 C59        -11.8380    13.7870     5.5720 c5         1 7OA      -0.107700
     27 C6          -7.2420    16.1530    -4.7820 ca         1 7OA       0.045000
     28 C69        -11.4190    13.6990     7.0540 c5         1 7OA      -0.125700
     29 C7         -11.8850    15.0620     7.6230 c5         1 7OA       0.382300
     30 C79         -5.1670    17.5970   -10.0080 cx         1 7OA       0.143500
     31 C9          -9.6080    14.7490     6.0110 c5         1 7OA      -0.113700
     32 F1         -14.4510    13.1740     3.0870 f          1 7OA      -0.181500
     33 F2         -12.0320    11.1390    -0.3860 f          1 7OA      -0.181500
     34 N1          -8.2580    17.4030    -8.0600 nd         1 7OA      -0.652100
     35 N11         -8.4500    17.0220    -1.5520 n3         1 7OA      -0.745500
     36 N20        -10.8140    16.3940     1.9900 ns         1 7OA      -0.491900
     37 O1         -10.8290    15.9780     7.7820 os         1 7OA      -0.461000
     38 O18        -11.2130    18.7910     0.1110 oh         1 7OA      -0.672000
     39 O2         -12.8610    15.5800     6.7280 os         1 7OA      -0.481000
     40 O23        -10.8570    15.4070     3.9750 os         1 7OA      -0.464100
     41 S1          -5.8680    16.8100    -7.1590 ss         1 7OA      -0.012200
     42 S8          -8.5230    15.6230    -2.4260 sy         1 7OA       1.194600
     43 H1         -13.7030    15.4070     2.0380 ha         1 7OA       0.148000
     44 H2         -11.4470    13.5500    -1.1270 ha         1 7OA       0.148000
     45 H3          -9.4430    13.8450     8.0120 hc         1 7OA       0.061700
     46 H4          -9.5360    12.6770     6.6850 hc         1 7OA       0.061700
     47 H5         -13.1550    15.3170     4.7100 h1         1 7OA       0.055700
     48 H6         -13.9600    14.1210     5.7450 h1         1 7OA       0.055700
     49 H7          -7.3820    18.5980    -2.4530 h1         1 7OA       0.047700
     50 H8          -6.4710    17.1200    -2.1640 h1         1 7OA       0.047700
     51 H9          -5.5510    18.6310    -0.7750 hc         1 7OA       0.044700
     52 H10         -6.5890    20.1290     0.8150 hc         1 7OA       0.038867
     53 H11         -7.2610    20.4110    -0.7950 hc         1 7OA       0.038867
     54 H12         -8.2030    19.5560     0.4250 hc         1 7OA       0.038867
     55 H13         -5.8800    17.7440     1.4960 hc         1 7OA       0.038867
     56 H14         -7.4320    17.0420     1.0330 hc         1 7OA       0.038867
     57 H15         -5.9460    16.4400     0.3030 hc         1 7OA       0.038867
     58 H16        -10.4680    17.4040    -2.0570 h1         1 7OA       0.064200
     59 H17         -9.5090    18.8170    -1.6670 h1         1 7OA       0.064200
     60 H18         -9.3900    18.0310     0.7180 h1         1 7OA       0.061700
     61 H19         -9.9800    15.6640     0.2710 h1         1 7OA       0.108700
     62 H21         -4.4430    19.2370    -8.7020 hc         1 7OA       0.085200
     63 H22        -10.5610    17.1470    -6.5950 ha         1 7OA       0.136000
     64 H23        -11.9820    16.0060    -1.1720 hc         1 7OA       0.067700
     65 H24        -12.8250    16.7550     0.1830 hc         1 7OA       0.067700
     66 H25        -13.5230    11.1320     1.7520 ha         1 7OA       0.147000
     67 H26         -5.1690    19.5300   -11.0740 hc         1 7OA       0.085200
     68 H27         -3.8810    18.3630   -11.6370 hc         1 7OA       0.085200
     69 H28        -10.6060    16.3440    -4.2550 ha         1 7OA       0.131000
     70 H29        -10.0950    13.5370     4.3040 h1         1 7OA       0.080700
     71 H30        -12.1050    12.8200     5.1490 hc         1 7OA       0.078700
     72 H31         -6.3310    15.8650    -4.2790 ha         1 7OA       0.142000
     73 H32        -11.8980    12.8820     7.5900 hc         1 7OA       0.076700
     74 H33        -12.3260    14.9790     8.6170 h2         1 7OA       0.092700
     75 H34         -4.8800    16.5720   -10.2210 h1         1 7OA       0.092700
     76 H38         -8.5770    14.7730     5.6570 hc         1 7OA       0.076700
     77 H40        -11.5390    16.9440     2.4270 hn         1 7OA       0.311500
     78 H42        -11.3870    19.0120     1.0340 ho         1 7OA       0.450000
     79 C21        -10.3660    15.3430     2.7150 c          1 7OA       0.632100
     80 N2          -6.5280    17.7700    -9.5980 nu         1 7OA      -0.854400
     81 O10         -7.3270    14.8700    -2.1270 o          1 7OA      -0.547000
     82 O22         -9.6170    14.4710     2.3110 o          1 7OA      -0.521000
     83 O9          -9.8110    15.0290    -2.1580 o          1 7OA      -0.547000
     84 C8          -9.9600    16.1080     6.6430 c6         1 7OA       0.162600
     85 H35         -9.0600    16.5820     7.0320 h1         1 7OA       0.057200
     86 H36        -10.4110    16.7760     5.9080 h1         1 7OA       0.057200
     87 H20         -3.1430    18.0610    -9.2200 hc         1 7OA       0.085200
     88 H39         -7.2220    18.0010   -10.2960 hn         1 7OA       0.515000
@<TRIPOS>BOND
     1     1     2 ar  
     2     1    18 ar  
     3     1    43 1   
     4     2     3 ar  
     5     2    17 1   
     6     3    19 ar  
     7     3    44 1   
     8     4    34 2   
     9     4    41 1   
    10     4    80 1   
    11     5    28 1   
    12     5    31 1   
    13     5    45 1   
    14     5    46 1   
    15     6    26 1   
    16     6    39 1   
    17     6    47 1   
    18     6    48 1   
    19     7     8 1   
    20     7    35 1   
    21     7    49 1   
    22     7    50 1   
    23     8     9 1   
    24     8    10 1   
    25     8    51 1   
    26     9    52 1   
    27     9    53 1   
    28     9    54 1   
    29    10    55 1   
    30    10    56 1   
    31    10    57 1   
    32    11    12 1   
    33    11    35 1   
    34    11    58 1   
    35    11    59 1   
    36    12    13 1   
    37    12    38 1   
    38    12    60 1   
    39    13    17 1   
    40    13    36 1   
    41    13    61 1   
    42    14    16 ar  
    43    14    22 ar  
    44    14    34 1   
    45    15    21 1   
    46    15    30 1   
    47    15    62 1   
    48    15    87 1   
    49    16    23 ar  
    50    16    63 1   
    51    17    64 1   
    52    17    65 1   
    53    18    20 ar  
    54    18    32 1   
    55    19    20 ar  
    56    19    33 1   
    57    20    66 1   
    58    21    30 1   
    59    21    67 1   
    60    21    68 1   
    61    22    27 ar  
    62    22    41 1   
    63    23    25 ar  
    64    23    69 1   
    65    24    26 1   
    66    24    31 1   
    67    24    40 1   
    68    24    70 1   
    69    25    27 ar  
    70    25    42 1   
    71    26    28 1   
    72    26    71 1   
    73    27    72 1   
    74    28    29 1   
    75    28    73 1   
    76    29    37 1   
    77    29    39 1   
    78    29    74 1   
    79    30    75 1   
    80    30    80 1   
    81    31    76 1   
    82    31    84 1   
    83    35    42 1   
    84    36    77 1   
    85    36    79 1   
    86    37    84 1   
    87    38    78 1   
    88    40    79 1   
    89    42    81 2   
    90    42    83 2   
    91    79    82 2   
    92    80    88 1   
    93    84    85 1   
    94    84    86 1   
@<TRIPOS>SUBSTRUCTURE
     1 7OA         1 TEMP              0 ****  ****    0 ROOT
