@<TRIPOS>MOLECULE
7OD
   24    23     1     0     0
SMALL
bcc


@<TRIPOS>ATOM
      1 OAB          2.8360    -1.4910     0.6850 o          1 7OD      -0.834800
      2 CAA          2.7780    -0.3720     0.1350 c          1 7OD       0.915800
      3 OAI          3.7130     0.1980    -0.4640 o          1 7OD      -0.834800
      4 CAC          1.4560     0.3890     0.1870 ce         1 7OD      -0.151400
      5 CAK          1.4070     1.6910    -0.5550 c3         1 7OD      -0.031900
      6 CAD          0.4290    -0.1210     0.8720 c2         1 7OD      -0.218200
      7 CAE         -0.9370     0.4550     1.0560 c3         1 7OD      -0.057200
      8 CAF         -1.9900    -0.2450     0.1870 c3         1 7OD       0.143100
      9 OAH         -1.6740    -0.1500    -1.1860 oh         1 7OD      -0.583800
     10 CAG         -3.3910     0.2790     0.4920 c3         1 7OD      -0.113400
     11 CAJ         -4.4870    -0.4020    -0.3150 c3         1 7OD      -0.080100
     12 HAM          2.1420     2.3990    -0.1680 hc         1 7OD       0.018700
     13 HAN          1.6460     1.5460    -1.6100 hc         1 7OD       0.018700
     14 HAO          0.4300     2.1690    -0.5060 hc         1 7OD       0.018700
     15 HAD          0.5890    -1.0840     1.3480 ha         1 7OD       0.138000
     16 HAF         -1.2340     0.3380     2.1030 hc         1 7OD       0.024200
     17 HAE         -0.9660     1.5290     0.8500 hc         1 7OD       0.024200
     18 HAG         -1.9670    -1.3170     0.4120 h1         1 7OD       0.070700
     19 HAP         -1.6640     0.7820    -1.4290 ho         1 7OD       0.390000
     20 HAH         -3.5820     0.1400     1.5600 hc         1 7OD       0.032200
     21 HAI         -3.4180     1.3610     0.3190 hc         1 7OD       0.032200
     22 HAK         -5.4710    -0.0310    -0.0270 hc         1 7OD       0.026700
     23 HAL         -4.3690    -0.2240    -1.3830 hc         1 7OD       0.026700
     24 HAJ         -4.4820    -1.4820    -0.1560 hc         1 7OD       0.026700
@<TRIPOS>BOND
     1     1     2 1   
     2     2     3 1   
     3     2     4 1   
     4     4     5 1   
     5     4     6 2   
     6     5    12 1   
     7     5    13 1   
     8     5    14 1   
     9     6     7 1   
    10     6    15 1   
    11     7     8 1   
    12     7    16 1   
    13     7    17 1   
    14     8     9 1   
    15     8    10 1   
    16     8    18 1   
    17     9    19 1   
    18    10    11 1   
    19    10    20 1   
    20    10    21 1   
    21    11    22 1   
    22    11    23 1   
    23    11    24 1   
@<TRIPOS>SUBSTRUCTURE
     1 7OD         1 TEMP              0 ****  ****    0 ROOT
