@<TRIPOS>MOLECULE
7OD
   24    23     1     0     0
SMALL
No Charge or Current Charge


@<TRIPOS>ATOM
      1 OAB          2.9780    -1.3580     0.5410 o          1 7OD      -0.729500
      2 CAA          2.8030    -0.2760    -0.0030 c          1 7OD       0.705200
      3 OAI          3.6810     0.2730    -0.6530 o          1 7OD      -0.729500
      4 CAC          1.4510     0.4120     0.1490 ce         1 7OD      -0.151400
      5 CAK          1.2760     1.7430    -0.5880 c3         1 7OD      -0.031900
      6 CAD          0.4470    -0.1490     0.8850 c2         1 7OD      -0.268200
      7 CAE         -0.9550     0.3870     1.1480 c3         1 7OD      -0.057200
      8 CAF         -2.0280    -0.2540     0.2350 c3         1 7OD       0.166300
      9 OAH         -1.6270    -0.0760    -1.1250 oh         1 7OD      -0.646000
     10 CAG         -3.4370     0.3520     0.4510 c3         1 7OD      -0.113400
     11 CAJ         -4.5560    -0.3480    -0.3500 c3         1 7OD      -0.080100
     12 HAM          1.7250     2.5650    -0.0180 hc         1 7OD       0.018700
     13 HAN          1.7490     1.7270    -1.5770 hc         1 7OD       0.018700
     14 HAO          0.2270     2.0020    -0.7620 hc         1 7OD       0.018700
     15 HAD          0.6210    -1.1060     1.3840 ha         1 7OD       0.188000
     16 HAF         -1.2250     0.1810     2.1920 hc         1 7OD       0.024200
     17 HAE         -0.9880     1.4790     1.0510 hc         1 7OD       0.024200
     18 HAG         -2.0730    -1.3270     0.4740 h1         1 7OD       0.070700
     19 HAP         -0.6470    -0.0130    -1.0920 ho         1 7OD       0.429000
     20 HAH         -3.6880     0.2930     1.5180 hc         1 7OD       0.032200
     21 HAI         -3.4220     1.4180     0.1910 hc         1 7OD       0.032200
     22 HAK         -5.5280     0.1010    -0.1180 hc         1 7OD       0.026700
     23 HAL         -4.3860    -0.2540    -1.4290 hc         1 7OD       0.026700
     24 HAJ         -4.6030    -1.4150    -0.0980 hc         1 7OD       0.026700
@<TRIPOS>BOND
     1     1     2 1   
     2     2     3 1   
     3     2     4 1   
     4     4     5 1   
     5     4     6 2   
     6     5    12 1   
     7     5    13 1   
     8     5    14 1   
     9     6     7 1   
    10     6    15 1   
    11     7     8 1   
    12     7    16 1   
    13     7    17 1   
    14     8     9 1   
    15     8    10 1   
    16     8    18 1   
    17     9    19 1   
    18    10    11 1   
    19    10    20 1   
    20    10    21 1   
    21    11    22 1   
    22    11    23 1   
    23    11    24 1   
@<TRIPOS>SUBSTRUCTURE
     1 7OD         1 TEMP              0 ****  ****    0 ROOT
