@<TRIPOS>MOLECULE
7OE
   74    81     1     0     0
SMALL
No Charge or Current Charge


@<TRIPOS>ATOM
      1 C15          5.7880     2.8320   -20.7250 c5         1 7OE      -0.069900
      2 C14          6.7930     3.5410   -21.6940 c5         1 7OE      -0.069900
      3 C16         -2.3600     3.3350   -26.1050 ca         1 7OE      -0.067000
      4 C17         -3.6630     3.2340   -26.5980 ca         1 7OE      -0.110000
      5 C13          5.6480     2.9610   -23.9910 c6         1 7OE       0.183800
      6 C12          6.7870     2.6290   -22.9560 c5         1 7OE       0.132000
      7 C11          5.3660     1.5480   -21.5050 c5         1 7OE       0.132000
      8 C10          4.0990     1.7470   -22.4120 c6         1 7OE       0.183800
      9 C01          2.0180     3.8190   -23.7360 ca         1 7OE      -0.265000
     10 C02          1.2200     4.9770   -23.6360 ca         1 7OE       0.079000
     11 C03          3.0840     6.1670   -22.9590 ca         1 7OE       0.422300
     12 C04          3.3780     3.9310   -23.4120 ca         1 7OE       0.466900
     13 C05          1.4450     2.6120   -24.1730 ca         1 7OE       0.385900
     14 C06         -0.6580     3.5870   -24.3400 cp         1 7OE       0.374500
     15 C07         -0.1450     4.8540   -23.9540 ca         1 7OE       0.141000
     16 C08         -2.0920     3.4080   -24.7150 cp         1 7OE      -0.124500
     17 C09          4.9850     7.5050   -22.1550 c3         1 7OE       0.200600
     18 C18         -4.7370     3.2100   -25.7070 ca         1 7OE      -0.084000
     19 C19         -4.5150     3.2680   -24.3200 ca         1 7OE      -0.060000
     20 C20         -3.1940     3.3540   -23.7830 ca         1 7OE       0.038000
     21 C21         -5.6440     3.2360   -23.4830 ca         1 7OE      -0.062000
     22 C22         -5.4960     3.2770   -22.0960 ca         1 7OE      -0.151000
     23 C23         -4.2180     3.3370   -21.5370 ca         1 7OE       0.194000
     24 C24         -3.0590     3.3700   -22.3510 ca         1 7OE      -0.003000
     25 C25          5.2870     8.9840   -21.7440 c5         1 7OE       0.171200
     26 C26          4.4040     9.5100   -20.5510 c5         1 7OE      -0.088400
     27 C27          4.2190    11.0120   -20.8830 c5         1 7OE      -0.099400
     28 C28          4.0190    10.9200   -22.4190 c5         1 7OE       0.162800
     29 C29          6.3840    10.7510   -23.0050 c5         1 7OE       0.162800
     30 C30          7.4210     9.6690   -22.6460 c5         1 7OE      -0.099400
     31 C31          6.7900     9.1830   -21.3210 c5         1 7OE      -0.088400
     32 C32         -1.7930     3.3770   -21.6570 cg         1 7OE      -0.112000
     33 C33         -0.7440     3.3750   -21.0420 c1         1 7OE      -0.222000
     34 F01         -0.9630     5.9350   -23.8790 f          1 7OE      -0.142000
     35 F23         -4.1170     3.3540   -20.1850 f          1 7OE      -0.169000
     36 N01          1.7670     6.1460   -23.2450 nb         1 7OE      -0.217000
     37 N02          3.9070     5.1010   -23.0280 nb         1 7OE      -0.370000
     38 N03          0.1350     2.4990   -24.4830 nb         1 7OE      -0.657000
     39 N04          4.2580     2.8330   -23.4330 nh         1 7OE      -0.777300
     40 N05          6.5610     1.2910   -22.3510 n7         1 7OE      -0.835400
     41 N06          5.1050     9.9930   -22.8490 n3         1 7OE      -0.708600
     42 H1           4.9280     3.4660   -20.4790 hc         1 7OE       0.053700
     43 H2           6.2770     2.5750   -19.7790 hc         1 7OE       0.053700
     44 H3           7.7940     3.5830   -21.2500 hc         1 7OE       0.053700
     45 H4           6.5040     4.5730   -21.9230 hc         1 7OE       0.053700
     46 H5          -1.5330     3.3720   -26.8110 ha         1 7OE       0.122000
     47 H6          -3.8390     3.1850   -27.6710 ha         1 7OE       0.120000
     48 H7           5.7510     2.2860   -24.8530 h1         1 7OE       0.065950
     49 H8           5.8200     3.9730   -24.3850 h1         1 7OE       0.065950
     50 H9           7.7490     2.6800   -23.4870 h1         1 7OE       0.081700
     51 H10          5.1630     0.7120   -20.8190 h1         1 7OE       0.081700
     52 H11          3.2390     1.9660   -21.7600 h1         1 7OE       0.065950
     53 H12          3.8670     0.7980   -22.9170 h1         1 7OE       0.065950
     54 H13          2.0360     1.7060   -24.2950 h4         1 7OE       0.021100
     55 H14          5.1980     6.8500   -21.2990 h1         1 7OE       0.048200
     56 H15          5.6530     7.2210   -22.9780 h1         1 7OE       0.048200
     57 H16         -5.7490     3.1400   -26.1000 ha         1 7OE       0.115000
     58 H17         -6.6440     3.1760   -23.9100 ha         1 7OE       0.119000
     59 H18         -6.3710     3.2510   -21.4510 ha         1 7OE       0.135000
     60 H19          3.4290     9.0090   -20.5280 hc         1 7OE       0.052950
     61 H20          4.8550     9.3450   -19.5660 hc         1 7OE       0.052950
     62 H21          5.0910    11.6130   -20.6020 hc         1 7OE       0.048950
     63 H22          3.3500    11.4480   -20.3780 hc         1 7OE       0.048950
     64 H23          4.0710    11.9020   -22.9120 h1         1 7OE       0.048950
     65 H24          3.0340    10.4890   -22.6490 h1         1 7OE       0.048950
     66 H25          6.5160    11.1280   -24.0280 h1         1 7OE       0.048950
     67 H26          6.4700    11.6080   -22.3220 h1         1 7OE       0.048950
     68 H27          7.4750     8.8780   -23.4040 hc         1 7OE       0.048950
     69 H28          8.4280    10.0800   -22.5120 hc         1 7OE       0.048950
     70 H29          7.2510     8.2580   -20.9560 hc         1 7OE       0.052950
     71 H30          6.9230     9.9330   -20.5320 hc         1 7OE       0.052950
     72 H31          0.1760     3.3720   -20.4930 ha         1 7OE       0.254000
     73 H32          6.3290     0.6100   -23.0850 hn         1 7OE       0.412000
     74 O01          3.6010     7.3770   -22.5570 os         1 7OE      -0.418300
@<TRIPOS>BOND
     1     1     2 1   
     2     1     7 1   
     3     1    42 1   
     4     1    43 1   
     5     2     6 1   
     6     2    44 1   
     7     2    45 1   
     8     3     4 ar  
     9     3    16 ar  
    10     3    46 1   
    11     4    18 ar  
    12     4    47 1   
    13     5     6 1   
    14     5    39 1   
    15     5    48 1   
    16     5    49 1   
    17     6    40 1   
    18     6    50 1   
    19     7     8 1   
    20     7    40 1   
    21     7    51 1   
    22     8    39 1   
    23     8    52 1   
    24     8    53 1   
    25     9    10 ar  
    26     9    12 ar  
    27     9    13 ar  
    28    10    15 ar  
    29    10    36 ar  
    30    11    36 ar  
    31    11    37 ar  
    32    11    74 1   
    33    12    37 ar  
    34    12    39 1   
    35    13    38 ar  
    36    13    54 1   
    37    14    15 ar  
    38    14    16 1   
    39    14    38 ar  
    40    15    34 1   
    41    16    20 ar  
    42    17    25 1   
    43    17    55 1   
    44    17    56 1   
    45    17    74 1   
    46    18    19 ar  
    47    18    57 1   
    48    19    20 ar  
    49    19    21 ar  
    50    20    24 ar  
    51    21    22 ar  
    52    21    58 1   
    53    22    23 ar  
    54    22    59 1   
    55    23    24 ar  
    56    23    35 1   
    57    24    32 1   
    58    25    26 1   
    59    25    31 1   
    60    25    41 1   
    61    26    27 1   
    62    26    60 1   
    63    26    61 1   
    64    27    28 1   
    65    27    62 1   
    66    27    63 1   
    67    28    41 1   
    68    28    64 1   
    69    28    65 1   
    70    29    30 1   
    71    29    41 1   
    72    29    66 1   
    73    29    67 1   
    74    30    31 1   
    75    30    68 1   
    76    30    69 1   
    77    31    70 1   
    78    31    71 1   
    79    32    33 3   
    80    33    72 1   
    81    40    73 1   
@<TRIPOS>SUBSTRUCTURE
     1 7OE         1 TEMP              0 ****  ****    0 ROOT
