@<TRIPOS>MOLECULE
7OE
   74    81     1     0     0
SMALL
abcg2


@<TRIPOS>ATOM
      1 C15          4.4140     2.1920   -20.5080 c5         1 7OE      -0.069900
      2 C14          5.6390     3.1200   -20.6670 c5         1 7OE      -0.069900
      3 C16         -2.4690     4.4350   -25.8260 ca         1 7OE      -0.067000
      4 C17         -3.8260     4.3150   -26.1680 ca         1 7OE      -0.110000
      5 C13          5.7670     3.2310   -23.1870 c6         1 7OE       0.183800
      6 C12          6.3330     2.5830   -21.9250 c5         1 7OE       0.132000
      7 C11          4.5430     1.2180   -21.6870 c5         1 7OE       0.132000
      8 C10          3.8210     1.7620   -22.9260 c6         1 7OE       0.183800
      9 C01          2.1410     4.1020   -23.7750 ca         1 7OE      -0.265000
     10 C02          1.4030     5.2920   -23.6050 ca         1 7OE       0.079000
     11 C03          3.2410     6.4230   -23.0400 ca         1 7OE       0.422300
     12 C04          3.5240     4.1770   -23.3630 ca         1 7OE       0.466900
     13 C05          1.5100     3.0180   -24.4120 ca         1 7OE       0.385900
     14 C06         -0.5210     4.0590   -24.3910 cp         1 7OE       0.374500
     15 C07          0.0280     5.2060   -23.8980 ca         1 7OE       0.141000
     16 C08         -1.9780     3.9460   -24.6410 cp         1 7OE      -0.124500
     17 C09          5.1570     7.6770   -22.4070 c3         1 7OE       0.200600
     18 C18         -4.6820     3.6920   -25.3070 ca         1 7OE      -0.084000
     19 C19         -4.2200     3.1790   -24.0740 ca         1 7OE      -0.060000
     20 C20         -2.8490     3.3090   -23.7140 ca         1 7OE       0.038000
     21 C21         -5.1270     2.5400   -23.1990 ca         1 7OE      -0.062000
     22 C22         -4.7190     2.0430   -21.9960 ca         1 7OE      -0.151000
     23 C23         -3.3760     2.1880   -21.6430 ca         1 7OE       0.194000
     24 C24         -2.4330     2.7950   -22.4420 ca         1 7OE      -0.003000
     25 C25          5.4650     9.1140   -22.0120 c5         1 7OE       0.171200
     26 C26          4.6590     9.5750   -20.7780 c5         1 7OE      -0.088400
     27 C27          4.2760    11.0130   -21.1100 c5         1 7OE      -0.099400
     28 C28          4.0630    10.9340   -22.6200 c5         1 7OE       0.162800
     29 C29          6.3160    10.7160   -23.5790 c5         1 7OE       0.162800
     30 C30          7.4460     9.7720   -23.2050 c5         1 7OE      -0.099400
     31 C31          6.9860     9.2600   -21.8460 c5         1 7OE      -0.088400
     32 C32         -1.1130     2.8720   -21.9150 cg         1 7OE      -0.112000
     33 C33         -0.0350     2.8930   -21.3810 c1         1 7OE      -0.222000
     34 F01         -0.7360     6.2750   -23.6580 f          1 7OE      -0.142000
     35 F23         -2.9920     1.7140   -20.4560 f          1 7OE      -0.169000
     36 N01          1.9370     6.4540   -23.2030 nb         1 7OE      -0.217000
     37 N02          4.0440     5.3680   -23.1040 nb         1 7OE      -0.370000
     38 N03          0.2390     2.9940   -24.7140 nb         1 7OE      -0.657000
     39 N04          4.3120     3.1010   -23.2390 nh         1 7OE      -0.777300
     40 N05          5.9870     1.1650   -21.8690 n7         1 7OE      -0.835400
     41 N06          5.1080    10.0450   -23.1070 n3         1 7OE      -0.708600
     42 H1           3.4670     2.7350   -20.5260 hc         1 7OE       0.053700
     43 H2           4.4540     1.6470   -19.5660 hc         1 7OE       0.053700
     44 H3           6.3030     3.0420   -19.8070 hc         1 7OE       0.053700
     45 H4           5.3640     4.1700   -20.7710 hc         1 7OE       0.053700
     46 H5          -1.7880     4.9150   -26.5190 ha         1 7OE       0.122000
     47 H6          -4.1800     4.7100   -27.1110 ha         1 7OE       0.120000
     48 H7           6.1810     2.7280   -24.0680 h1         1 7OE       0.065950
     49 H8           6.0370     4.2810   -23.2430 h1         1 7OE       0.065950
     50 H9           7.4150     2.7260   -21.9110 h1         1 7OE       0.081700
     51 H10          4.1340     0.2300   -21.4680 h1         1 7OE       0.081700
     52 H11          2.7550     1.7980   -22.7100 h1         1 7OE       0.065950
     53 H12          3.9740     1.0870   -23.7750 h1         1 7OE       0.065950
     54 H13          2.0830     2.1500   -24.7160 h4         1 7OE       0.021100
     55 H14          5.3810     7.0000   -21.5770 h1         1 7OE       0.048200
     56 H15          5.7710     7.3760   -23.2600 h1         1 7OE       0.048200
     57 H16         -5.7310     3.5820   -25.5540 ha         1 7OE       0.115000
     58 H17         -6.1640     2.4490   -23.4970 ha         1 7OE       0.119000
     59 H18         -5.4060     1.5530   -21.3190 ha         1 7OE       0.135000
     60 H19          3.7560     8.9740   -20.6500 hc         1 7OE       0.052950
     61 H20          5.2430     9.4800   -19.8620 hc         1 7OE       0.052950
     62 H21          5.0960    11.7000   -20.8790 hc         1 7OE       0.048950
     63 H22          3.3960    11.3590   -20.5670 hc         1 7OE       0.048950
     64 H23          4.1180    11.9030   -23.1190 h1         1 7OE       0.048950
     65 H24          3.0740    10.5170   -22.8370 h1         1 7OE       0.048950
     66 H25          6.2660    10.9110   -24.6530 h1         1 7OE       0.048950
     67 H26          6.4720    11.6870   -23.0830 h1         1 7OE       0.048950
     68 H27          7.5250     8.9540   -23.9250 hc         1 7OE       0.048950
     69 H28          8.4140    10.2730   -23.1700 hc         1 7OE       0.048950
     70 H29          7.4700     8.3300   -21.5390 hc         1 7OE       0.052950
     71 H30          7.2030    10.0050   -21.0770 hc         1 7OE       0.052950
     72 H31          0.9290     2.9240   -20.9240 ha         1 7OE       0.254000
     73 H32          6.2420     0.6820   -22.7240 hn         1 7OE       0.412000
     74 O01          3.7760     7.5950   -22.7470 os         1 7OE      -0.418300
@<TRIPOS>BOND
     1     1     2 1   
     2     1     7 1   
     3     1    42 1   
     4     1    43 1   
     5     2     6 1   
     6     2    44 1   
     7     2    45 1   
     8     3     4 ar  
     9     3    16 ar  
    10     3    46 1   
    11     4    18 ar  
    12     4    47 1   
    13     5     6 1   
    14     5    39 1   
    15     5    48 1   
    16     5    49 1   
    17     6    40 1   
    18     6    50 1   
    19     7     8 1   
    20     7    40 1   
    21     7    51 1   
    22     8    39 1   
    23     8    52 1   
    24     8    53 1   
    25     9    10 ar  
    26     9    12 ar  
    27     9    13 ar  
    28    10    15 ar  
    29    10    36 ar  
    30    11    36 ar  
    31    11    37 ar  
    32    11    74 1   
    33    12    37 ar  
    34    12    39 1   
    35    13    38 ar  
    36    13    54 1   
    37    14    15 ar  
    38    14    16 1   
    39    14    38 ar  
    40    15    34 1   
    41    16    20 ar  
    42    17    25 1   
    43    17    55 1   
    44    17    56 1   
    45    17    74 1   
    46    18    19 ar  
    47    18    57 1   
    48    19    20 ar  
    49    19    21 ar  
    50    20    24 ar  
    51    21    22 ar  
    52    21    58 1   
    53    22    23 ar  
    54    22    59 1   
    55    23    24 ar  
    56    23    35 1   
    57    24    32 1   
    58    25    26 1   
    59    25    31 1   
    60    25    41 1   
    61    26    27 1   
    62    26    60 1   
    63    26    61 1   
    64    27    28 1   
    65    27    62 1   
    66    27    63 1   
    67    28    41 1   
    68    28    64 1   
    69    28    65 1   
    70    29    30 1   
    71    29    41 1   
    72    29    66 1   
    73    29    67 1   
    74    30    31 1   
    75    30    68 1   
    76    30    69 1   
    77    31    70 1   
    78    31    71 1   
    79    32    33 3   
    80    33    72 1   
    81    40    73 1   
@<TRIPOS>SUBSTRUCTURE
     1 7OE         1 TEMP              0 ****  ****    0 ROOT
