@<TRIPOS>MOLECULE
7OF
   30    31     1     0     0
SMALL
No Charge or Current Charge


@<TRIPOS>ATOM
      1 C1          59.6540   -16.8620     1.6010 c          1 7OF       0.681500
      2 C2          60.8860   -15.9200     1.8450 c3         1 7OF       0.228000
      3 N3          55.7060   -11.7970    -2.0020 nb         1 7OF      -0.662000
      4 C5          57.1040   -13.3370    -0.7470 ca         1 7OF      -0.165300
      5 C6          56.4880   -14.4400    -1.3690 ca         1 7OF      -0.019000
      6 C8          55.1210   -12.8630    -2.5910 ca         1 7OF       0.451000
      7 C9          56.6810   -12.0410    -1.0960 ca         1 7OF       0.358900
      8 C10         57.0330   -13.3380     2.4900 cc         1 7OF       0.027000
      9 C11         56.4640   -13.9530     3.5960 cd         1 7OF      -0.266000
     10 C12         56.5280   -15.3540     3.8430 cd         1 7OF      -0.079000
     11 C13         57.2240   -16.1010     2.9420 cc         1 7OF      -0.359600
     12 Cl1         53.8600   -12.5090    -3.7630 cl         1 7OF      -0.162000
     13 C7          55.4760   -14.1920    -2.3100 ca         1 7OF      -0.146000
     14 N2          57.6960   -14.1440     1.5330 na         1 7OF      -0.523400
     15 C3          57.8420   -15.5060     1.8130 cc         1 7OF       0.772500
     16 N1          58.4960   -16.2890     1.0270 nf         1 7OF      -0.835100
     17 O1          59.6500   -18.0560     1.8680 o          1 7OF      -0.568100
     18 F1          61.2090   -15.2170     0.7330 f          1 7OF      -0.111000
     19 F2          60.6450   -15.0240     2.8330 f          1 7OF      -0.111000
     20 F3          61.9900   -16.6190     2.2050 f          1 7OF      -0.111000
     21 H1          59.0020   -14.1420    -0.1580 h1         1 7OF       0.079200
     22 H2          58.6600   -12.5620     0.5270 h1         1 7OF       0.079200
     23 H3          56.7860   -15.4600    -1.1310 ha         1 7OF       0.141000
     24 H4          57.1340   -11.1640    -0.6350 h4         1 7OF       0.016100
     25 H5          56.9700   -12.2690     2.2980 h4         1 7OF       0.212000
     26 H6          55.9330   -13.3270     4.3110 ha         1 7OF       0.211000
     27 H7          56.0550   -15.8020     4.7170 ha         1 7OF       0.200000
     28 H8          57.3220   -17.1720     3.0710 ha         1 7OF       0.241000
     29 H9          54.9720   -15.0100    -2.8150 ha         1 7OF       0.147000
     30 C4          58.2050   -13.5320     0.2840 c3         1 7OF       0.272100
@<TRIPOS>BOND
     1     1     2 1   
     2     1    16 1   
     3     1    17 2   
     4     2    18 1   
     5     2    19 1   
     6     2    20 1   
     7     3     6 ar  
     8     3     7 ar  
     9     4     5 ar  
    10     4     7 ar  
    11     4    30 1   
    12     5    13 ar  
    13     5    23 1   
    14     6    12 1   
    15     6    13 ar  
    16     7    24 1   
    17     8     9 2   
    18     8    14 1   
    19     8    25 1   
    20     9    10 1   
    21     9    26 1   
    22    10    11 2   
    23    10    27 1   
    24    11    15 1   
    25    11    28 1   
    26    13    29 1   
    27    14    15 1   
    28    14    30 1   
    29    15    16 2   
    30    21    30 1   
    31    22    30 1   
@<TRIPOS>SUBSTRUCTURE
     1 7OF         1 TEMP              0 ****  ****    0 ROOT
