@<TRIPOS>MOLECULE
7OF
   30    31     1     0     0
SMALL
abcg2


@<TRIPOS>ATOM
      1 C1          59.1480   -16.6370     1.3510 c          1 7OF       0.681500
      2 C2          59.9240   -16.9440     0.0570 c3         1 7OF       0.228000
      3 N3          55.1610   -13.2880    -1.5220 nb         1 7OF      -0.662000
      4 C5          57.2430   -13.2590    -0.3420 ca         1 7OF      -0.165300
      5 C6          57.8630   -13.8600    -1.4300 ca         1 7OF      -0.019000
      6 C8          55.7760   -13.8510    -2.5340 ca         1 7OF       0.451000
      7 C9          55.8850   -12.9940    -0.4480 ca         1 7OF       0.358900
      8 C10         56.7960   -12.8920     2.9790 cc         1 7OF       0.027000
      9 C11         56.3100   -13.4780     4.1080 cd         1 7OF      -0.266000
     10 C12         56.6220   -14.8240     4.3300 cd         1 7OF      -0.079000
     11 C13         57.4000   -15.5140     3.4390 cc         1 7OF      -0.359600
     12 CL1         54.8050   -14.2080    -3.9270 cl         1 7OF      -0.162000
     13 C7          57.1260   -14.1630    -2.5600 ca         1 7OF      -0.146000
     14 N2          57.5530   -13.5730     2.0920 na         1 7OF      -0.523400
     15 C3          57.8960   -14.8910     2.2690 cc         1 7OF       0.772500
     16 N1          58.6480   -15.4040     1.3000 nf         1 7OF      -0.835100
     17 O1          59.1000   -17.5080     2.2050 o          1 7OF      -0.568100
     18 F1          59.1150   -16.9090    -1.0100 f          1 7OF      -0.111000
     19 F2          60.9030   -16.0560    -0.1550 f          1 7OF      -0.111000
     20 F3          60.4810   -18.1520     0.0900 f          1 7OF      -0.111000
     21 H1          59.0750   -13.0650     0.7520 h1         1 7OF       0.079200
     22 H2          57.8990   -11.8030     1.0810 h1         1 7OF       0.079200
     23 H3          58.9210   -14.0820    -1.3980 ha         1 7OF       0.141000
     24 H4          55.3460   -12.5170     0.3650 h4         1 7OF       0.016100
     25 H5          56.5990   -11.8580     2.7390 h4         1 7OF       0.212000
     26 H6          55.7070   -12.9050     4.7950 ha         1 7OF       0.211000
     27 H7          56.2520   -15.3270     5.2140 ha         1 7OF       0.200000
     28 H8          57.6440   -16.5470     3.6170 ha         1 7OF       0.241000
     29 H9          57.5800   -14.6260    -3.4240 ha         1 7OF       0.147000
     30 C4          58.0150   -12.8680     0.8870 c3         1 7OF       0.272100
@<TRIPOS>BOND
     1     1     2 1   
     2     1    16 1   
     3     1    17 2   
     4     2    18 1   
     5     2    19 1   
     6     2    20 1   
     7     3     6 ar  
     8     3     7 ar  
     9     4     5 ar  
    10     4     7 ar  
    11     4    30 1   
    12     5    13 ar  
    13     5    23 1   
    14     6    12 1   
    15     6    13 ar  
    16     7    24 1   
    17     8     9 2   
    18     8    14 1   
    19     8    25 1   
    20     9    10 1   
    21     9    26 1   
    22    10    11 2   
    23    10    27 1   
    24    11    15 1   
    25    11    28 1   
    26    13    29 1   
    27    14    15 1   
    28    14    30 1   
    29    15    16 2   
    30    21    30 1   
    31    22    30 1   
@<TRIPOS>SUBSTRUCTURE
     1 7OF         1 TEMP              0 ****  ****    0 ROOT
