@<TRIPOS>MOLECULE
7OG
   49    53     1     0     0
SMALL
No Charge or Current Charge


@<TRIPOS>ATOM
      1 C5          -3.9710     1.6060    -0.3800 cc         1 7OG       0.411500
      2 C8          -3.9710     0.9250    -2.3880 cd         1 7OG       0.541200
      3 C10         -1.6120    -1.2910     0.5930 c6         1 7OG      -0.048400
      4 N12          0.4700    -2.3250    -0.3800 n          1 7OG      -0.398800
      5 C13         -0.4070    -1.1170    -0.3700 c6         1 7OG       0.104000
      6 C15         -1.4590    -3.8070     0.2550 c6         1 7OG      -0.101400
      7 C20          3.3940     0.9470    -0.7240 ca         1 7OG      -0.046000
      8 C21          4.2330     1.1810     0.3870 ca         1 7OG      -0.025000
      9 C22          4.2510     0.2630     1.4510 ca         1 7OG      -0.104000
     10 C26          4.2030     3.0000    -1.7610 ca         1 7OG      -0.107000
     11 C28          5.0520     2.3250     0.4190 ca         1 7OG      -0.102000
     12 C27          5.0360     3.2340    -0.6530 ca         1 7OG      -0.099000
     13 C25          3.3840     1.8580    -1.7980 ca         1 7OG      -0.093000
     14 C23          3.4310    -0.8780     1.4150 ca         1 7OG      -0.076000
     15 C19          2.5740    -0.1970    -0.7570 ca         1 7OG      -0.065000
     16 C18          2.5670    -1.1100     0.3230 ca         1 7OG      -0.143600
     17 C2          -2.7560     0.6690     1.7560 cc         1 7OG      -0.227000
     18 C1          -2.5110    -0.0620     0.6000 cd         1 7OG       0.011700
     19 C3          -3.5630     1.7940     1.8250 cd         1 7OG       0.413300
     20 C16          1.7100    -2.3580     0.3030 c          1 7OG       0.610700
     21 C14         -2.4040    -2.5830     0.2630 c6         1 7OG      -0.070400
     22 C11         -0.2700    -3.5750    -0.7060 c6         1 7OG       0.086000
     23 N7          -4.4760     1.9010    -1.5510 nd         1 7OG      -0.376300
     24 N9          -3.1750     0.0390    -1.7910 nc         1 7OG      -0.608100
     25 N4          -4.1980     2.3100     0.7750 nc         1 7OG      -0.636000
     26 N6          -3.1810     0.4810    -0.5040 na         1 7OG       0.084900
     27 O17          2.1250    -3.4010     0.7960 o          1 7OG      -0.587100
     28 H1          -4.2160     0.9030    -3.4430 h5         1 7OG       0.074800
     29 H2          -1.1920    -1.4200     1.6010 hc         1 7OG       0.066700
     30 H3          -0.7620    -0.9350    -1.3940 h1         1 7OG       0.073200
     31 H4           0.1470    -0.2230    -0.0550 h1         1 7OG       0.073200
     32 H5          -1.0810    -3.9930     1.2690 hc         1 7OG       0.054700
     33 H6          -2.0120    -4.7070    -0.0450 hc         1 7OG       0.054700
     34 H11          4.1930     3.7030    -2.5910 ha         1 7OG       0.116000
     35 H12          5.7020     2.5100     1.2720 ha         1 7OG       0.115000
     36 H13          5.6700     4.1170    -0.6260 ha         1 7OG       0.115000
     37 H14          2.7420     1.6860    -2.6590 ha         1 7OG       0.116000
     38 H15          3.4580    -1.5790     2.2480 ha         1 7OG       0.125000
     39 H16          1.9540    -0.3810    -1.6310 ha         1 7OG       0.122000
     40 H17         -2.2850     0.3410     2.6760 ha         1 7OG       0.143000
     41 H18         -3.2050    -2.7330     1.0010 hc         1 7OG       0.058200
     42 H19         -2.8930    -2.4930    -0.7160 hc         1 7OG       0.058200
     43 H20         -0.6460    -3.5020    -1.7370 h1         1 7OG       0.066700
     44 H21          0.4040    -4.4430    -0.6770 h1         1 7OG       0.066700
     45 C24         -3.7780     2.5370     3.1150 c3         1 7OG      -0.153400
     46 H7           4.9010     0.4300     2.3070 ha         1 7OG       0.117000
     47 H8          -3.1130     3.4050     3.1760 hc         1 7OG       0.063033
     48 H9          -4.8110     2.8950     3.2040 hc         1 7OG       0.063033
     49 H10         -3.5780     1.8970     3.9820 hc         1 7OG       0.063033
@<TRIPOS>BOND
     1     1    23 2   
     2     1    25 1   
     3     1    26 1   
     4     2    23 1   
     5     2    24 2   
     6     2    28 1   
     7     3     5 1   
     8     3    18 1   
     9     3    21 1   
    10     3    29 1   
    11     4     5 1   
    12     4    20 1   
    13     4    22 1   
    14     5    30 1   
    15     5    31 1   
    16     6    21 1   
    17     6    22 1   
    18     6    32 1   
    19     6    33 1   
    20     7     8 ar  
    21     7    13 ar  
    22     7    15 ar  
    23     8     9 ar  
    24     8    11 ar  
    25     9    14 ar  
    26     9    46 1   
    27    10    12 ar  
    28    10    13 ar  
    29    10    34 1   
    30    11    12 ar  
    31    11    35 1   
    32    12    36 1   
    33    13    37 1   
    34    14    16 ar  
    35    14    38 1   
    36    15    16 ar  
    37    15    39 1   
    38    16    20 1   
    39    17    18 2   
    40    17    19 1   
    41    17    40 1   
    42    18    26 1   
    43    19    25 2   
    44    19    45 1   
    45    20    27 2   
    46    21    41 1   
    47    21    42 1   
    48    22    43 1   
    49    22    44 1   
    50    24    26 1   
    51    45    47 1   
    52    45    48 1   
    53    45    49 1   
@<TRIPOS>SUBSTRUCTURE
     1 7OG         1 TEMP              0 ****  ****    0 ROOT
