@<TRIPOS>MOLECULE
7OG
   49    53     1     0     0
SMALL
bcc


@<TRIPOS>ATOM
      1 C5          -3.9820     1.4630    -0.3050 cc         1 7OG       0.411500
      2 C8          -4.1610     0.6070    -2.1970 cd         1 7OG       0.541200
      3 C10         -1.5160    -1.2640     0.5090 c6         1 7OG      -0.048400
      4 N12          0.4000    -2.3090    -0.5750 n          1 7OG      -0.465800
      5 C13         -0.4600    -1.1390    -0.6030 c6         1 7OG       0.104000
      6 C15         -1.3800    -3.7550     0.2850 c6         1 7OG      -0.101400
      7 C20          3.3840     0.9540    -0.7570 ca         1 7OG      -0.046000
      8 C21          3.9340     1.2530     0.5160 ca         1 7OG      -0.025000
      9 C22          3.6860     0.3670     1.5910 ca         1 7OG      -0.122000
     10 C26          4.3990     2.9520    -1.6620 ca         1 7OG      -0.125000
     11 C28          4.7160     2.4210     0.6690 ca         1 7OG      -0.120000
     12 C27          4.9430     3.2510    -0.3940 ca         1 7OG      -0.117000
     13 C25          3.6370     1.8290    -1.8390 ca         1 7OG      -0.111000
     14 C23          2.9360    -0.7600     1.4120 ca         1 7OG      -0.094000
     15 C19          2.5930    -0.2070    -0.9100 ca         1 7OG      -0.083000
     16 C18          2.3650    -1.0460     0.1500 ca         1 7OG      -0.143600
     17 C2          -2.4610     0.7090     1.7570 cc         1 7OG      -0.310300
     18 C1          -2.3800    -0.0510     0.6260 cd         1 7OG       0.062400
     19 C3          -3.3190     1.8360     1.8160 cd         1 7OG       0.478600
     20 C16          1.6320    -2.3400    -0.0180 c          1 7OG       0.677700
     21 C14         -2.3240    -2.5600     0.3530 c6         1 7OG      -0.070400
     22 C11         -0.3250    -3.5530    -0.7940 c6         1 7OG       0.086000
     23 N7          -4.6210     1.6210    -1.4510 nd         1 7OG      -0.376300
     24 N9          -3.2820    -0.1860    -1.6210 nc         1 7OG      -0.608100
     25 N4          -4.0660     2.2010     0.8010 nc         1 7OG      -0.636000
     26 N6          -3.1640     0.3620    -0.4030 na         1 7OG       0.034200
     27 O17          2.1860    -3.3780     0.3170 o          1 7OG      -0.587100
     28 H1          -4.4790     0.4330    -3.2140 h5         1 7OG       0.074800
     29 H2          -0.9710    -1.3200     1.4570 hc         1 7OG       0.066700
     30 H3          -0.9390    -1.0820    -1.5810 h1         1 7OG       0.073200
     31 H4           0.1210    -0.2310    -0.4680 h1         1 7OG       0.073200
     32 H5          -0.8870    -3.8980     1.2510 hc         1 7OG       0.054700
     33 H6          -1.9440    -4.6650     0.0760 hc         1 7OG       0.054700
     34 H11          4.5880     3.6170    -2.4940 ha         1 7OG       0.134000
     35 H12          5.1350     2.6490     1.6420 ha         1 7OG       0.133000
     36 H13          5.5440     4.1420    -0.2680 ha         1 7OG       0.133000
     37 H14          3.2190     1.5990    -2.8120 ha         1 7OG       0.134000
     38 H15          2.7650    -1.4340     2.2410 ha         1 7OG       0.143000
     39 H16          2.1780    -0.4300    -1.8870 ha         1 7OG       0.140000
     40 H17         -1.8640     0.4390     2.6170 ha         1 7OG       0.161000
     41 H18         -3.0130    -2.6670     1.1930 hc         1 7OG       0.058200
     42 H19         -2.9280    -2.5170    -0.5550 hc         1 7OG       0.058200
     43 H20         -0.8030    -3.4920    -1.7770 h1         1 7OG       0.066700
     44 H21          0.3750    -4.3830    -0.8240 h1         1 7OG       0.066700
     45 C24         -3.3730     2.6490     3.0670 c3         1 7OG      -0.153400
     46 H7           4.1060     0.5910     2.5650 ha         1 7OG       0.135000
     47 H8          -2.4310     3.1830     3.2070 hc         1 7OG       0.063033
     48 H9          -4.1810     3.3750     3.0260 hc         1 7OG       0.063033
     49 H10         -3.5110     2.0110     3.9410 hc         1 7OG       0.063033
@<TRIPOS>BOND
     1     1    23 2   
     2     1    25 1   
     3     1    26 1   
     4     2    23 1   
     5     2    24 2   
     6     2    28 1   
     7     3     5 1   
     8     3    18 1   
     9     3    21 1   
    10     3    29 1   
    11     4     5 1   
    12     4    20 1   
    13     4    22 1   
    14     5    30 1   
    15     5    31 1   
    16     6    21 1   
    17     6    22 1   
    18     6    32 1   
    19     6    33 1   
    20     7     8 ar  
    21     7    13 ar  
    22     7    15 ar  
    23     8     9 ar  
    24     8    11 ar  
    25     9    14 ar  
    26     9    46 1   
    27    10    12 ar  
    28    10    13 ar  
    29    10    34 1   
    30    11    12 ar  
    31    11    35 1   
    32    12    36 1   
    33    13    37 1   
    34    14    16 ar  
    35    14    38 1   
    36    15    16 ar  
    37    15    39 1   
    38    16    20 1   
    39    17    18 2   
    40    17    19 1   
    41    17    40 1   
    42    18    26 1   
    43    19    25 2   
    44    19    45 1   
    45    20    27 2   
    46    21    41 1   
    47    21    42 1   
    48    22    43 1   
    49    22    44 1   
    50    24    26 1   
    51    45    47 1   
    52    45    48 1   
    53    45    49 1   
@<TRIPOS>SUBSTRUCTURE
     1 7OG         1 TEMP              0 ****  ****    0 ROOT
