@<TRIPOS>MOLECULE
7OJ
   43    46     1     0     0
SMALL
No Charge or Current Charge


@<TRIPOS>ATOM
      1 N3          -6.6700    -1.3930     0.3920 nc         1 7OJ      -0.633000
      2 C4          -6.1540    -0.1750     0.7300 cc         1 7OJ       0.413500
      3 C6          -3.9310    -0.5080    -0.1620 cc         1 7OJ       0.005700
      4 C8          -5.8630     1.8080     1.4670 cd         1 7OJ       0.545200
      5 C13         -0.9720     1.4680    -1.7780 c6         1 7OJ       0.155000
      6 C20          3.2170    -0.7670     0.2460 ca         1 7OJ      -0.007000
      7 C21          4.5620    -0.3560     0.2350 ca         1 7OJ      -0.083900
      8 C22          3.9010     1.8290     1.0780 ca         1 7OJ      -0.162000
      9 C23          2.5560     1.4210     1.0880 ca         1 7OJ      -0.045000
     10 C18          2.1980     0.1240     0.6510 ca         1 7OJ      -0.167600
     11 C27          4.9000     0.9440     0.6470 ca         1 7OJ       0.218000
     12 C1          -4.4370    -1.7570    -0.5170 cd         1 7OJ      -0.215000
     13 C2          -5.7930    -2.1680    -0.2320 cd         1 7OJ       0.414300
     14 C12         -2.4370     1.0590    -1.5030 c6         1 7OJ      -0.127400
     15 C16         -1.6900     0.2350     0.8000 c6         1 7OJ       0.085000
     16 C14         -0.1570     1.7190    -0.4830 c6         1 7OJ       0.044000
     17 C11         -2.4960    -0.1110    -0.4820 c6         1 7OJ      -0.044400
     18 N7          -6.7970     0.7830     1.3510 nd         1 7OJ      -0.373300
     19 N9          -4.6630     1.5380     0.9480 nc         1 7OJ      -0.617100
     20 N5          -4.8850     0.2850     0.4950 na         1 7OJ       0.082900
     21 N15         -0.2750     0.5830     0.4860 n          1 7OJ      -0.389800
     22 O19          0.5130    -1.5270     0.9350 o          1 7OJ      -0.569100
     23 F28          6.1910     1.3480     0.6440 f          1 7OJ      -0.152000
     24 F26         -0.9560     2.6290    -2.5700 f          1 7OJ      -0.114000
     25 H1          -6.1150     2.7460     1.9470 h5         1 7OJ       0.075800
     26 H5           2.9650    -1.7770    -0.0730 ha         1 7OJ       0.148000
     27 H6           4.1720     2.8270     1.4100 ha         1 7OJ       0.141000
     28 H7           1.7970     2.1110     1.4540 ha         1 7OJ       0.130000
     29 H8          -3.7910    -2.4590    -1.0310 ha         1 7OJ       0.148000
     30 H9          -2.9840     1.9290    -1.1180 hc         1 7OJ       0.086700
     31 H10         -2.9310     0.7710    -2.4410 hc         1 7OJ       0.086700
     32 H11         -2.1490     1.0900     1.3150 h1         1 7OJ       0.085200
     33 H12         -1.7320    -0.6120     1.5010 h1         1 7OJ       0.085200
     34 H13          0.8880     1.8920    -0.7720 h1         1 7OJ       0.087200
     35 H14         -0.5180     2.6390    -0.0010 h1         1 7OJ       0.087200
     36 H15         -1.9910    -0.9720    -0.9420 hc         1 7OJ       0.086700
     37 C10         -6.3020    -3.5250    -0.6300 c3         1 7OJ      -0.155400
     38 F25         -0.3400     0.4650    -2.5360 f          1 7OJ      -0.114000
     39 C17          0.7660    -0.3580     0.6740 c          1 7OJ       0.617700
     40 Br24         5.9180    -1.5830    -0.3390 br         1 7OJ      -0.051100
     41 H2          -6.5020    -4.1400     0.2550 hc         1 7OJ       0.064700
     42 H3          -7.2320    -3.4430    -1.2040 hc         1 7OJ       0.064700
     43 H4          -5.5740    -4.0600    -1.2510 hc         1 7OJ       0.064700
@<TRIPOS>BOND
     1     1     2 1   
     2     1    13 2   
     3     2    18 2   
     4     2    20 1   
     5     3    12 2   
     6     3    17 1   
     7     3    20 1   
     8     4    18 1   
     9     4    19 2   
    10     4    25 1   
    11     5    14 1   
    12     5    16 1   
    13     5    24 1   
    14     5    38 1   
    15     6     7 ar  
    16     6    10 ar  
    17     6    26 1   
    18     7    11 ar  
    19     7    40 1   
    20     8     9 ar  
    21     8    11 ar  
    22     8    27 1   
    23     9    10 ar  
    24     9    28 1   
    25    10    39 1   
    26    11    23 1   
    27    12    13 1   
    28    12    29 1   
    29    13    37 1   
    30    14    17 1   
    31    14    30 1   
    32    14    31 1   
    33    15    17 1   
    34    15    21 1   
    35    15    32 1   
    36    15    33 1   
    37    16    21 1   
    38    16    34 1   
    39    16    35 1   
    40    17    36 1   
    41    19    20 1   
    42    21    39 1   
    43    22    39 2   
    44    37    41 1   
    45    37    42 1   
    46    37    43 1   
@<TRIPOS>SUBSTRUCTURE
     1 7OJ         1 TEMP              0 ****  ****    0 ROOT
