@<TRIPOS>MOLECULE
7OJ
   43    46     1     0     0
SMALL
bcc


@<TRIPOS>ATOM
      1 N3          -6.5150    -1.3260     0.2050 nc         1 7OJ      -0.633000
      2 C4          -6.0900    -0.0890     0.4620 cc         1 7OJ       0.413500
      3 C6          -3.8280    -0.5650    -0.1540 cc         1 7OJ       0.056400
      4 C8          -5.8620     1.9180     0.9740 cd         1 7OJ       0.545200
      5 C13         -0.8390     1.4020    -1.5370 c6         1 7OJ       0.397600
      6 C20          2.8280    -0.6320    -0.0900 ca         1 7OJ      -0.025000
      7 C21          4.1680    -0.3150    -0.2400 ca         1 7OJ      -0.083900
      8 C22          3.8850     1.5990     1.1980 ca         1 7OJ      -0.180000
      9 C23          2.5410     1.2910     1.3300 ca         1 7OJ      -0.063000
     10 C18          2.0080     0.1800     0.6840 ca         1 7OJ      -0.167600
     11 C27          4.6840     0.7970     0.4090 ca         1 7OJ       0.182900
     12 C1          -4.2600    -1.8310    -0.4140 cd         1 7OJ      -0.298300
     13 C2          -5.6220    -2.1850    -0.2250 cd         1 7OJ       0.479600
     14 C12         -2.2780     0.9540    -1.4260 c6         1 7OJ      -0.127400
     15 C16         -1.7600     0.3560     0.9720 c6         1 7OJ       0.085000
     16 C14         -0.2380     1.8180    -0.2030 c6         1 7OJ       0.044000
     17 C11         -2.4110    -0.1230    -0.3370 c6         1 7OJ      -0.044400
     18 N7          -6.7830     0.9470     0.9000 nd         1 7OJ      -0.373300
     19 N9          -4.6380     1.5860     0.6190 nc         1 7OJ      -0.617100
     20 N5          -4.7820     0.2940     0.2890 na         1 7OJ       0.032200
     21 N15         -0.3740     0.7120     0.7240 n          1 7OJ      -0.456800
     22 O19          0.3350    -1.3770     1.2360 o          1 7OJ      -0.569100
     23 F28          5.9740     1.0960     0.2710 f          1 7OJ      -0.116900
     24 F26         -0.7340     2.4330    -2.4210 f          1 7OJ      -0.235300
     25 H1          -6.0890     2.9210     1.3030 h5         1 7OJ       0.075800
     26 H5           2.4210    -1.5050    -0.5820 ha         1 7OJ       0.166000
     27 H6           4.3130     2.4550     1.7030 ha         1 7OJ       0.159000
     28 H7           1.9130     1.9170     1.9510 ha         1 7OJ       0.148000
     29 H8          -3.5550    -2.5700    -0.7680 ha         1 7OJ       0.166000
     30 H9          -2.8830     1.8260    -1.1710 hc         1 7OJ       0.086700
     31 H10         -2.6260     0.5740    -2.3890 hc         1 7OJ       0.086700
     32 H11         -2.2710     1.2430     1.3490 h1         1 7OJ       0.085200
     33 H12         -1.8160    -0.4140     1.7370 h1         1 7OJ       0.085200
     34 H13          0.8010     2.1090    -0.3420 h1         1 7OJ       0.087200
     35 H14         -0.7760     2.6850     0.1840 h1         1 7OJ       0.087200
     36 H15         -1.8730    -1.0160    -0.6640 hc         1 7OJ       0.086700
     37 C10         -6.0630    -3.5770    -0.5330 c3         1 7OJ      -0.155400
     38 F25         -0.0760     0.3850    -2.0500 f          1 7OJ      -0.235300
     39 C17          0.5870    -0.2370     0.8870 c          1 7OJ       0.684700
     40 BR24         5.2920    -1.3750    -1.3020 br         1 7OJ      -0.051100
     41 H2          -5.4790    -4.3010     0.0360 hc         1 7OJ       0.064700
     42 H3          -7.1170    -3.7120    -0.3030 hc         1 7OJ       0.064700
     43 H4          -5.9040    -3.7990    -1.5900 hc         1 7OJ       0.064700
@<TRIPOS>BOND
     1     1     2 1   
     2     1    13 2   
     3     2    18 2   
     4     2    20 1   
     5     3    12 2   
     6     3    17 1   
     7     3    20 1   
     8     4    18 1   
     9     4    19 2   
    10     4    25 1   
    11     5    14 1   
    12     5    16 1   
    13     5    24 1   
    14     5    38 1   
    15     6     7 ar  
    16     6    10 ar  
    17     6    26 1   
    18     7    11 ar  
    19     7    40 1   
    20     8     9 ar  
    21     8    11 ar  
    22     8    27 1   
    23     9    10 ar  
    24     9    28 1   
    25    10    39 1   
    26    11    23 1   
    27    12    13 1   
    28    12    29 1   
    29    13    37 1   
    30    14    17 1   
    31    14    30 1   
    32    14    31 1   
    33    15    17 1   
    34    15    21 1   
    35    15    32 1   
    36    15    33 1   
    37    16    21 1   
    38    16    34 1   
    39    16    35 1   
    40    17    36 1   
    41    19    20 1   
    42    21    39 1   
    43    22    39 2   
    44    37    41 1   
    45    37    42 1   
    46    37    43 1   
@<TRIPOS>SUBSTRUCTURE
     1 7OJ         1 TEMP              0 ****  ****    0 ROOT
