@<TRIPOS>MOLECULE
7OL
   34    35     1     0     0
SMALL
No Charge or Current Charge


@<TRIPOS>ATOM
      1 O6          23.3080   -35.4790    35.2060 oh         1 7OL      -0.716000
      2 C6          22.7260   -36.7940    35.0790 c3         1 7OL       0.163600
      3 C4          21.1610   -36.8010    35.1310 c6         1 7OL       0.135300
      4 C2          20.5110   -36.0720    33.9150 c6         1 7OL       0.153300
      5 O3          20.8340   -36.7160    32.6640 oh         1 7OL      -0.702000
      6 C1          18.9660   -36.0340    34.1040 c6         1 7OL       0.176300
      7 O2          18.3390   -35.3130    33.0270 oh         1 7OL      -0.648000
      8 C3          18.5910   -35.3860    35.4670 c6         1 7OL       0.112300
      9 O5          17.1450   -35.3630    35.6150 oh         1 7OL      -0.704000
     10 C5          19.3260   -36.1530    36.6250 c6         1 7OL       0.361300
     11 O1          20.7520   -36.1680    36.3760 os         1 7OL      -0.454000
     12 O4          18.8340   -37.5050    36.7580 os         1 7OL      -0.365100
     13 C7          19.2260   -38.3200    37.8030 ca         1 7OL       0.138100
     14 C9          18.7750   -39.6510    37.7880 ca         1 7OL      -0.163500
     15 C11         19.1300   -40.5370    38.8200 ca         1 7OL      -0.079500
     16 C12         19.9400   -40.0910    39.8770 ca         1 7OL      -0.145000
     17 C10         20.3930   -38.7620    39.9030 ca         1 7OL      -0.079500
     18 C8          20.0380   -37.8750    38.8710 ca         1 7OL      -0.163500
     19 H11         24.2860   -35.5990    35.2330 ho         1 7OL       0.504000
     20 H6          23.0450   -37.2620    34.1380 h1         1 7OL       0.034200
     21 H7          23.0860   -37.4400    35.8920 h1         1 7OL       0.034200
     22 H4          20.8320   -37.8510    35.1410 h1         1 7OL       0.067700
     23 H2          20.8790   -35.0340    33.9050 h1         1 7OL       0.066700
     24 H9          20.1830   -36.3550    32.0150 ho         1 7OL       0.508000
     25 H1          18.6000   -37.0720    34.1150 h1         1 7OL       0.069700
     26 H8          17.4450   -35.0850    33.3720 ho         1 7OL       0.458000
     27 H3          18.9750   -34.3540    35.4690 h1         1 7OL       0.058700
     28 H10         16.9380   -34.9630    36.4930 ho         1 7OL       0.510000
     29 H5          19.1340   -35.6110    37.5630 h2         1 7OL       0.076700
     30 H13         18.1470   -39.9970    36.9710 ha         1 7OL       0.126000
     31 H15         18.7770   -41.5660    38.8000 ha         1 7OL       0.112000
     32 H16         20.2150   -40.7750    40.6770 ha         1 7OL       0.114000
     33 H14         21.0200   -38.4180    40.7230 ha         1 7OL       0.112000
     34 H12         20.4030   -36.8530    38.9180 ha         1 7OL       0.126000
@<TRIPOS>BOND
     1     1     2 1   
     2     1    19 1   
     3     2     3 1   
     4     2    20 1   
     5     2    21 1   
     6     3     4 1   
     7     3    11 1   
     8     3    22 1   
     9     4     5 1   
    10     4     6 1   
    11     4    23 1   
    12     5    24 1   
    13     6     7 1   
    14     6     8 1   
    15     6    25 1   
    16     7    26 1   
    17     8     9 1   
    18     8    10 1   
    19     8    27 1   
    20     9    28 1   
    21    10    11 1   
    22    10    12 1   
    23    10    29 1   
    24    12    13 1   
    25    13    14 ar  
    26    13    18 ar  
    27    14    15 ar  
    28    14    30 1   
    29    15    16 ar  
    30    15    31 1   
    31    16    17 ar  
    32    16    32 1   
    33    17    18 ar  
    34    17    33 1   
    35    18    34 1   
@<TRIPOS>SUBSTRUCTURE
     1 7OL         1 TEMP              0 ****  ****    0 ROOT
