@<TRIPOS>MOLECULE
7OL
   34    35     1     0     0
SMALL
abcg2


@<TRIPOS>ATOM
      1 O6          23.0810   -35.4000    34.9440 oh         1 7OL      -0.716000
      2 C6          22.6220   -36.7280    35.0220 c3         1 7OL       0.163600
      3 C4          21.1120   -36.7500    35.1130 c6         1 7OL       0.135300
      4 C2          20.4070   -36.0310    33.9560 c6         1 7OL       0.153300
      5 O3          20.6970   -36.6630    32.7330 oh         1 7OL      -0.702000
      6 C1          18.9030   -36.0800    34.1790 c6         1 7OL       0.176300
      7 O2          18.2760   -35.3390    33.1630 oh         1 7OL      -0.648000
      8 C3          18.5820   -35.5030    35.5560 c6         1 7OL       0.112300
      9 O5          17.1980   -35.6090    35.7620 oh         1 7OL      -0.704000
     10 C5          19.3900   -36.2030    36.6510 c6         1 7OL       0.361300
     11 O1          20.7480   -36.1660    36.3590 os         1 7OL      -0.454000
     12 O4          18.9040   -37.5150    36.7600 os         1 7OL      -0.365100
     13 C7          19.2780   -38.2990    37.8000 ca         1 7OL       0.138100
     14 C9          18.7170   -39.5760    37.8220 ca         1 7OL      -0.163500
     15 C11         19.0220   -40.4540    38.8480 ca         1 7OL      -0.079500
     16 C12         19.8890   -40.0760    39.8670 ca         1 7OL      -0.145000
     17 C10         20.4460   -38.8070    39.8380 ca         1 7OL      -0.079500
     18 C8          20.1550   -37.9150    38.8120 ca         1 7OL      -0.163500
     19 H11         24.0220   -35.4180    34.7520 ho         1 7OL       0.504000
     20 H6          22.9150   -37.3180    34.1460 h1         1 7OL       0.034200
     21 H7          23.0260   -37.2520    35.8980 h1         1 7OL       0.034200
     22 H4          20.8190   -37.8090    35.0870 h1         1 7OL       0.067700
     23 H2          20.7170   -34.9780    33.9430 h1         1 7OL       0.066700
     24 H9          21.5230   -36.3100    32.3900 ho         1 7OL       0.508000
     25 H1          18.5810   -37.1330    34.1480 h1         1 7OL       0.069700
     26 H8          17.3300   -35.3340    33.3440 ho         1 7OL       0.458000
     27 H3          18.9050   -34.4530    35.5620 h1         1 7OL       0.058700
     28 H10         16.9260   -34.9500    36.4070 ho         1 7OL       0.510000
     29 H5          19.2700   -35.6710    37.6030 h2         1 7OL       0.076700
     30 H13         18.0390   -39.8700    37.0300 ha         1 7OL       0.126000
     31 H15         18.5760   -41.4410    38.8500 ha         1 7OL       0.112000
     32 H16         20.1280   -40.7630    40.6670 ha         1 7OL       0.114000
     33 H14         21.1280   -38.4980    40.6200 ha         1 7OL       0.112000
     34 H12         20.6280   -36.9430    38.8220 ha         1 7OL       0.126000
@<TRIPOS>BOND
     1     1     2 1   
     2     1    19 1   
     3     2     3 1   
     4     2    20 1   
     5     2    21 1   
     6     3     4 1   
     7     3    11 1   
     8     3    22 1   
     9     4     5 1   
    10     4     6 1   
    11     4    23 1   
    12     5    24 1   
    13     6     7 1   
    14     6     8 1   
    15     6    25 1   
    16     7    26 1   
    17     8     9 1   
    18     8    10 1   
    19     8    27 1   
    20     9    28 1   
    21    10    11 1   
    22    10    12 1   
    23    10    29 1   
    24    12    13 1   
    25    13    14 ar  
    26    13    18 ar  
    27    14    15 ar  
    28    14    30 1   
    29    15    16 ar  
    30    15    31 1   
    31    16    17 ar  
    32    16    32 1   
    33    17    18 ar  
    34    17    33 1   
    35    18    34 1   
@<TRIPOS>SUBSTRUCTURE
     1 7OL         1 TEMP              0 ****  ****    0 ROOT
