@<TRIPOS>MOLECULE
7OM
   51    55     1     0     0
SMALL
abcg2


@<TRIPOS>ATOM
      1 C5           5.7230     3.7440     2.3170 c6         1 7OM       0.198800
      2 C6           6.3970     4.4890     1.1770 c6         1 7OM      -0.084400
      3 C7           7.8370     4.0400     0.9860 c6         1 7OM      -0.067400
      4 N12          6.5240     4.3420     8.0590 nc         1 7OM      -0.385300
      5 C13          7.5690     4.8370     7.3910 cc         1 7OM       0.562200
      6 C15          4.6000     3.0280     4.8330 cc         1 7OM      -0.307000
      7 C20          9.0310     7.4310     4.2420 ca         1 7OM      -0.017000
      8 C21          9.5710     7.5910     5.4940 ca         1 7OM      -0.146000
      9 C22          9.8380     8.8760     6.0170 ca         1 7OM      -0.017000
     10 C24          9.0010     9.8220     3.9370 ca         1 7OM      -0.087000
     11 C26         10.3880     9.0580     7.3080 ca         1 7OM      -0.105000
     12 C28         10.3630    11.4500     6.9950 ca         1 7OM      -0.115000
     13 C27         10.6450    10.3150     7.7840 ca         1 7OM      -0.103000
     14 C29          9.8310    11.3030     5.7420 ca         1 7OM      -0.091000
     15 C25          8.7370     8.5720     3.4550 ca         1 7OM      -0.103000
     16 C23          9.5570    10.0170     5.2230 ca         1 7OM      -0.050000
     17 C11          5.7660     3.8240     7.1030 cd         1 7OM       0.441500
     18 C18          5.8410     3.6170     4.7080 cd         1 7OM       0.380000
     19 C16          4.0040     2.8610     6.0970 cc         1 7OM       0.440300
     20 C1           8.9290     5.6610     2.5570 c          1 7OM       0.613100
     21 C3           7.8900     3.4200     3.3930 c6         1 7OM       0.205800
     22 C2           8.6130     4.1900     2.2960 c6         1 7OM      -0.145700
     23 C19          2.6680     2.1980     6.1830 c3         1 7OM      -0.155400
     24 N14          7.5470     4.6740     6.0850 nd         1 7OM      -0.654100
     25 N17          4.5760     3.2450     7.2210 nd         1 7OM      -0.661000
     26 N10          6.3940     4.0100     5.8960 na         1 7OM       0.058900
     27 N4           6.5000     3.8690     3.5480 nh         1 7OM      -0.786400
     28 N8           8.7250     6.1310     3.8070 ns         1 7OM      -0.156000
     29 O9           9.3870     6.3500     1.6590 o          1 7OM      -0.601100
     30 H1           4.7310     4.1630     2.4830 h1         1 7OM       0.047200
     31 H2           5.5960     2.6860     2.0500 h1         1 7OM       0.047200
     32 H3           6.3540     5.5640     1.3720 hc         1 7OM       0.061200
     33 H4           5.8190     4.3120     0.2690 hc         1 7OM       0.061200
     34 H5           7.8590     2.9880     0.6890 hc         1 7OM       0.060200
     35 H6           8.3170     4.6020     0.1860 hc         1 7OM       0.060200
     36 H7           8.3920     5.3450     7.8720 h5         1 7OM       0.073800
     37 H8           4.0890     2.6530     3.9590 ha         1 7OM       0.140000
     38 H9           9.8120     6.7210     6.0930 ha         1 7OM       0.112000
     39 H10          8.7720    10.6890     3.3290 ha         1 7OM       0.114000
     40 H11         10.6030     8.1870     7.9160 ha         1 7OM       0.110000
     41 H12         10.5690    12.4370     7.3860 ha         1 7OM       0.112000
     42 H13         11.0670    10.4440     8.7730 ha         1 7OM       0.111000
     43 H14          9.6150    12.1730     5.1340 ha         1 7OM       0.112000
     44 H15          8.2870     8.4590     2.4800 ha         1 7OM       0.132000
     45 H16          7.8850     2.3600     3.1080 h1         1 7OM       0.060200
     46 H17          8.4220     3.4730     4.3390 h1         1 7OM       0.060200
     47 H18          9.5910     3.7080     2.1790 hc         1 7OM       0.082700
     48 H19          2.3360     2.1240     7.2160 hc         1 7OM       0.062033
     49 H20          1.9240     2.7550     5.6120 hc         1 7OM       0.062033
     50 H21          2.7110     1.1940     5.7570 hc         1 7OM       0.062033
     51 H22          8.3940     5.5070     4.5410 hn         1 7OM       0.194000
@<TRIPOS>BOND
     1     1     2 1   
     2     1    27 1   
     3     1    30 1   
     4     1    31 1   
     5     2     3 1   
     6     2    32 1   
     7     2    33 1   
     8     3    22 1   
     9     3    34 1   
    10     3    35 1   
    11     4     5 1   
    12     4    17 2   
    13     5    24 2   
    14     5    36 1   
    15     6    18 2   
    16     6    19 1   
    17     6    37 1   
    18     7     8 ar  
    19     7    15 ar  
    20     7    28 1   
    21     8     9 ar  
    22     8    38 1   
    23     9    11 ar  
    24     9    16 ar  
    25    10    15 ar  
    26    10    16 ar  
    27    10    39 1   
    28    11    13 ar  
    29    11    40 1   
    30    12    13 ar  
    31    12    14 ar  
    32    12    41 1   
    33    13    42 1   
    34    14    16 ar  
    35    14    43 1   
    36    15    44 1   
    37    17    25 1   
    38    17    26 1   
    39    18    26 1   
    40    18    27 1   
    41    19    23 1   
    42    19    25 2   
    43    20    22 1   
    44    20    28 1   
    45    20    29 2   
    46    21    22 1   
    47    21    27 1   
    48    21    45 1   
    49    21    46 1   
    50    22    47 1   
    51    23    48 1   
    52    23    49 1   
    53    23    50 1   
    54    24    26 1   
    55    28    51 1   
@<TRIPOS>SUBSTRUCTURE
     1 7OM         1 TEMP              0 ****  ****    0 ROOT
