@<TRIPOS>MOLECULE
7OM
   51    55     1     0     0
SMALL
No Charge or Current Charge


@<TRIPOS>ATOM
      1 C5           5.5540     4.2810     2.5830 c6         1 7OM       0.198800
      2 C6           6.0960     5.0990     1.3910 c6         1 7OM      -0.084400
      3 C7           7.2910     4.3850     0.7140 c6         1 7OM      -0.067400
      4 N12          7.9980     3.9420     7.9880 nc         1 7OM      -0.385300
      5 C13          8.9690     4.2490     7.0640 cc         1 7OM       0.562200
      6 C15          5.0940     3.4320     5.3940 cc         1 7OM      -0.307000
      7 C20          9.0370     7.1980     3.8690 ca         1 7OM      -0.017000
      8 C21          8.2640     7.6040     4.9730 ca         1 7OM      -0.146000
      9 C22          8.5930     8.7680     5.6910 ca         1 7OM      -0.017000
     10 C24         10.4730     9.1490     4.1900 ca         1 7OM      -0.087000
     11 C26          7.8190     9.1610     6.7990 ca         1 7OM      -0.105000
     12 C28          9.2570    11.0990     7.1230 ca         1 7OM      -0.115000
     13 C27          8.1510    10.3250     7.5140 ca         1 7OM      -0.103000
     14 C29         10.0330    10.7110     6.0160 ca         1 7OM      -0.091000
     15 C25         10.1430     7.9830     3.4770 ca         1 7OM      -0.103000
     16 C23          9.7030     9.5450     5.2990 ca         1 7OM      -0.050000
     17 C11          6.9560     3.7150     7.2320 cd         1 7OM       0.441500
     18 C18          6.3490     3.7430     4.9070 cd         1 7OM       0.380000
     19 C16          4.8350     3.2640     6.7990 cc         1 7OM       0.440300
     20 C1           9.2110     5.2610     2.1840 c          1 7OM       0.613100
     21 C3           7.7820     3.2170     2.8990 c6         1 7OM       0.205800
     22 C2           8.4210     4.0120     1.7240 c6         1 7OM      -0.145700
     23 C19          3.4270     2.9170     7.1830 c3         1 7OM      -0.155400
     24 N14          8.6340     4.2390     5.7730 nd         1 7OM      -0.654100
     25 N17          5.7290     3.4000     7.7740 nd         1 7OM      -0.661000
     26 N10          7.3190     3.8710     5.9200 na         1 7OM       0.058900
     27 N4           6.6450     3.9480     3.5390 nh         1 7OM      -0.786400
     28 N8           8.6400     6.0100     3.2000 ns         1 7OM      -0.156000
     29 O9          10.3220     5.4930     1.7170 o          1 7OM      -0.601100
     30 H1           4.7680     4.8690     3.0800 h1         1 7OM       0.047200
     31 H2           5.0880     3.3570     2.2110 h1         1 7OM       0.047200
     32 H3           6.3880     6.1010     1.7300 hc         1 7OM       0.061200
     33 H4           5.2910     5.2510     0.6590 hc         1 7OM       0.061200
     34 H5           6.9280     3.4680     0.2260 hc         1 7OM       0.060200
     35 H6           7.6960     5.0140    -0.0910 hc         1 7OM       0.060200
     36 H7           9.9620     4.4920     7.4230 h5         1 7OM       0.073800
     37 H8           4.2640     3.2940     4.7140 ha         1 7OM       0.140000
     38 H9           7.4080     7.0070     5.2780 ha         1 7OM       0.112000
     39 H10         11.3290     9.7440     3.8780 ha         1 7OM       0.114000
     40 H11          6.9620     8.5670     7.1080 ha         1 7OM       0.110000
     41 H12          9.5130    12.0000     7.6760 ha         1 7OM       0.112000
     42 H13          7.5520    10.6270     8.3710 ha         1 7OM       0.111000
     43 H14         10.8870    11.3150     5.7200 ha         1 7OM       0.112000
     44 H15         10.7540     7.7120     2.6220 ha         1 7OM       0.132000
     45 H16          7.4110     2.2580     2.5070 h1         1 7OM       0.060200
     46 H17          8.5660     2.9570     3.6230 h1         1 7OM       0.060200
     47 H18          9.1390     3.3680     1.2010 hc         1 7OM       0.082700
     48 H19          3.3180     2.7990     8.2680 hc         1 7OM       0.062033
     49 H20          2.7340     3.7020     6.8600 hc         1 7OM       0.062033
     50 H21          3.1190     1.9770     6.7110 hc         1 7OM       0.062033
     51 H22          7.7730     5.6100     3.5440 hn         1 7OM       0.194000
@<TRIPOS>BOND
     1     1     2 1   
     2     1    27 1   
     3     1    30 1   
     4     1    31 1   
     5     2     3 1   
     6     2    32 1   
     7     2    33 1   
     8     3    22 1   
     9     3    34 1   
    10     3    35 1   
    11     4     5 1   
    12     4    17 2   
    13     5    24 2   
    14     5    36 1   
    15     6    18 2   
    16     6    19 1   
    17     6    37 1   
    18     7     8 ar  
    19     7    15 ar  
    20     7    28 1   
    21     8     9 ar  
    22     8    38 1   
    23     9    11 ar  
    24     9    16 ar  
    25    10    15 ar  
    26    10    16 ar  
    27    10    39 1   
    28    11    13 ar  
    29    11    40 1   
    30    12    13 ar  
    31    12    14 ar  
    32    12    41 1   
    33    13    42 1   
    34    14    16 ar  
    35    14    43 1   
    36    15    44 1   
    37    17    25 1   
    38    17    26 1   
    39    18    26 1   
    40    18    27 1   
    41    19    23 1   
    42    19    25 2   
    43    20    22 1   
    44    20    28 1   
    45    20    29 2   
    46    21    22 1   
    47    21    27 1   
    48    21    45 1   
    49    21    46 1   
    50    22    47 1   
    51    23    48 1   
    52    23    49 1   
    53    23    50 1   
    54    24    26 1   
    55    28    51 1   
@<TRIPOS>SUBSTRUCTURE
     1 7OM         1 TEMP              0 ****  ****    0 ROOT
