@<TRIPOS>MOLECULE
7ON
   89    93     1     0     0
SMALL
abcg2


@<TRIPOS>ATOM
      1 O1          12.9510   -10.2260    -8.8980 o          1 7ON      -0.559000
      2 O4          17.1410   -12.7700    -9.3990 o          1 7ON      -0.620100
      3 O5          20.6680   -13.4520    -8.0760 o          1 7ON      -0.556100
      4 N2          13.4030    -9.1520   -15.6340 ns         1 7ON      -0.477900
      5 C1          13.8640   -11.7980   -10.5420 c5         1 7ON      -0.158700
      6 C3          12.7180   -13.6740    -9.5750 c5         1 7ON       0.101000
      7 C4          13.0250   -11.3560    -9.3510 c          1 7ON       0.566000
      8 C5          13.8950   -10.7640   -11.6540 c3         1 7ON      -0.067400
      9 C6          14.8260   -11.1840   -12.8070 c3         1 7ON       0.019700
     10 C21         16.0110   -17.6240    -7.4810 c6         1 7ON      -0.072900
     11 C22         15.0170   -17.5400    -8.6480 c6         1 7ON      -0.075400
     12 C23         15.7650   -17.4600    -9.9710 c6         1 7ON      -0.072900
     13 C31         19.9410   -13.0050    -5.8710 c3         1 7ON       0.224000
     14 C2          13.2650   -13.1560   -10.9050 c5         1 7ON      -0.094400
     15 N1          12.3990   -12.4470    -8.8760 ns         1 7ON      -0.515900
     16 C7          14.7540   -10.1480   -13.9100 c          1 7ON       0.486100
     17 C8          13.4810   -10.1640   -14.7750 c          1 7ON       0.500100
     18 O2          12.6560   -11.0550   -14.6450 o          1 7ON      -0.589100
     19 N3          16.1840   -11.3340   -12.3610 ns         1 7ON      -0.488900
     20 C9          16.8300   -12.5120   -12.3080 c          1 7ON       0.605100
     21 C10         18.2710   -12.4230   -11.8250 c5         1 7ON       0.032700
     22 O3          16.3510   -13.5740   -12.6720 o          1 7ON      -0.607100
     23 N4          18.5960   -13.5200   -10.9290 n          1 7ON      -0.380800
     24 C11         19.6860   -14.3490   -11.4350 c5         1 7ON       0.113000
     25 C12         20.3770   -13.4360   -12.4320 c5         1 7ON      -0.082700
     26 C13         19.2480   -12.5760   -13.0090 c5         1 7ON      -0.070700
     27 C14         21.3720   -12.4250   -11.8180 c5         1 7ON      -0.078400
     28 C15         20.9520   -11.0240   -12.3120 c5         1 7ON      -0.080400
     29 C16         19.9140   -11.2690   -13.4130 c5         1 7ON      -0.076400
     30 C17         17.9710   -13.6010    -9.7470 c          1 7ON       0.593100
     31 C18         18.2830   -14.7700    -8.8070 c3         1 7ON       0.046700
     32 C19         17.0560   -15.6800    -8.6810 c6         1 7ON      -0.070700
     33 C20         17.3230   -16.8880    -7.7860 c6         1 7ON      -0.073900
     34 C24         16.5750   -16.1590   -10.0620 c6         1 7ON      -0.073900
     35 N5          18.6130   -14.2220    -7.5050 ns         1 7ON      -0.469900
     36 C25         12.2880    -8.9660   -16.5520 c5         1 7ON       0.113700
     37 C26         12.4130    -7.6110   -17.2400 c5         1 7ON      -0.097900
     38 C27         13.4490    -7.8290   -18.3560 c5         1 7ON      -0.081400
     39 C28         13.4410    -9.3480   -18.6440 c5         1 7ON      -0.081400
     40 C29         12.3540    -9.9350   -17.7340 c5         1 7ON      -0.097900
     41 C30         19.7600   -13.5910    -7.2810 c          1 7ON       0.548100
     42 F1          20.9480   -13.6200    -5.2520 f          1 7ON      -0.101667
     43 F2          18.8560   -13.1210    -5.1030 f          1 7ON      -0.101667
     44 F3          20.2400   -11.7120    -5.9610 f          1 7ON      -0.101667
     45 O6          15.6270    -9.3450   -14.1130 o          1 7ON      -0.505100
     46 H1          14.1600    -8.4840   -15.6380 hn         1 7ON       0.336500
     47 H2          14.8790   -11.9390   -10.1520 hc         1 7ON       0.099700
     48 H3          11.8340   -14.2990    -9.6960 h1         1 7ON       0.041700
     49 H4          13.4700   -14.2570    -9.0310 h1         1 7ON       0.041700
     50 H5          14.2330    -9.8040   -11.2550 hc         1 7ON       0.067700
     51 H6          12.8850   -10.6120   -12.0410 hc         1 7ON       0.067700
     52 H7          14.4930   -12.1420   -13.2100 h1         1 7ON       0.120700
     53 H8          16.2330   -18.6690    -7.2560 hc         1 7ON       0.041950
     54 H9          15.5550   -17.2060    -6.5800 hc         1 7ON       0.041950
     55 H10         14.3820   -16.6540    -8.5420 hc         1 7ON       0.040200
     56 H11         14.3440   -18.4000    -8.6320 hc         1 7ON       0.040200
     57 H12         15.0770   -17.5250   -10.8160 hc         1 7ON       0.041950
     58 H13         16.4320   -18.3230   -10.0550 hc         1 7ON       0.041950
     59 H14         12.4480   -13.0220   -11.6190 hc         1 7ON       0.067700
     60 H15         13.9870   -13.8400   -11.3470 hc         1 7ON       0.067700
     61 H16         11.8770   -12.4300    -8.0140 hn         1 7ON       0.324500
     62 H18         16.6410   -10.5210   -11.9760 hn         1 7ON       0.328500
     63 H19         18.4370   -11.4710   -11.3090 h1         1 7ON       0.077700
     64 H20         19.2970   -15.2450   -11.9270 h1         1 7ON       0.059200
     65 H21         20.3520   -14.6620   -10.6340 h1         1 7ON       0.059200
     66 H22         20.8600   -14.0240   -13.2150 hc         1 7ON       0.068700
     67 H23         18.7520   -13.0710   -13.8460 hc         1 7ON       0.078700
     68 H24         21.3540   -12.4710   -10.7270 hc         1 7ON       0.055200
     69 H25         22.3900   -12.6660   -12.1210 hc         1 7ON       0.055200
     70 H26         21.7980   -10.4400   -12.6730 hc         1 7ON       0.046700
     71 H27         20.5080   -10.4500   -11.4960 hc         1 7ON       0.046700
     72 H28         20.4050   -11.4030   -14.3800 hc         1 7ON       0.052200
     73 H29         19.2050   -10.4460   -13.5270 hc         1 7ON       0.052200
     74 H30         19.1250   -15.3680    -9.1580 h1         1 7ON       0.081700
     75 H31         16.2580   -15.0810    -8.2250 hc         1 7ON       0.066700
     76 H32         18.0260   -17.5520    -8.2990 hc         1 7ON       0.048200
     77 H33         17.8080   -16.6000    -6.8510 hc         1 7ON       0.048200
     78 H34         17.4300   -16.3160   -10.7260 hc         1 7ON       0.048200
     79 H35         15.9670   -15.3780   -10.5230 hc         1 7ON       0.048200
     80 H36         17.8880   -14.2150    -6.8030 hn         1 7ON       0.346500
     81 H37         11.3570    -9.0610   -15.9890 h1         1 7ON       0.075700
     82 H38         12.6760    -6.8050   -16.5520 hc         1 7ON       0.056700
     83 H39         11.4400    -7.3600   -17.6660 hc         1 7ON       0.056700
     84 H40         13.2040    -7.2410   -19.2400 hc         1 7ON       0.044700
     85 H41         14.4400    -7.5050   -18.0320 hc         1 7ON       0.044700
     86 H42         13.2470    -9.5690   -19.6930 hc         1 7ON       0.044700
     87 H43         14.4110    -9.7870   -18.4070 hc         1 7ON       0.044700
     88 H44         11.3840    -9.9220   -18.2360 hc         1 7ON       0.056700
     89 H45         12.5470   -10.9660   -17.4350 hc         1 7ON       0.056700
@<TRIPOS>BOND
     1     1     7 2   
     2     2    30 2   
     3     3    41 2   
     4     4    17 1   
     5     4    36 1   
     6     4    46 1   
     7     5     7 1   
     8     5     8 1   
     9     5    14 1   
    10     5    47 1   
    11     6    14 1   
    12     6    15 1   
    13     6    48 1   
    14     6    49 1   
    15     7    15 1   
    16     8     9 1   
    17     8    50 1   
    18     8    51 1   
    19     9    16 1   
    20     9    19 1   
    21     9    52 1   
    22    10    11 1   
    23    10    33 1   
    24    10    53 1   
    25    10    54 1   
    26    11    12 1   
    27    11    55 1   
    28    11    56 1   
    29    12    34 1   
    30    12    57 1   
    31    12    58 1   
    32    13    41 1   
    33    13    42 1   
    34    13    43 1   
    35    13    44 1   
    36    14    59 1   
    37    14    60 1   
    38    15    61 1   
    39    16    17 1   
    40    16    45 2   
    41    17    18 2   
    42    19    20 1   
    43    19    62 1   
    44    20    21 1   
    45    20    22 2   
    46    21    23 1   
    47    21    26 1   
    48    21    63 1   
    49    23    24 1   
    50    23    30 1   
    51    24    25 1   
    52    24    64 1   
    53    24    65 1   
    54    25    26 1   
    55    25    27 1   
    56    25    66 1   
    57    26    29 1   
    58    26    67 1   
    59    27    28 1   
    60    27    68 1   
    61    27    69 1   
    62    28    29 1   
    63    28    70 1   
    64    28    71 1   
    65    29    72 1   
    66    29    73 1   
    67    30    31 1   
    68    31    32 1   
    69    31    35 1   
    70    31    74 1   
    71    32    33 1   
    72    32    34 1   
    73    32    75 1   
    74    33    76 1   
    75    33    77 1   
    76    34    78 1   
    77    34    79 1   
    78    35    41 1   
    79    35    80 1   
    80    36    37 1   
    81    36    40 1   
    82    36    81 1   
    83    37    38 1   
    84    37    82 1   
    85    37    83 1   
    86    38    39 1   
    87    38    84 1   
    88    38    85 1   
    89    39    40 1   
    90    39    86 1   
    91    39    87 1   
    92    40    88 1   
    93    40    89 1   
@<TRIPOS>SUBSTRUCTURE
     1 7ON         1 TEMP              0 ****  ****    0 ROOT
