@<TRIPOS>MOLECULE
7ON
   89    93     1     0     0
SMALL
No Charge or Current Charge


@<TRIPOS>ATOM
      1 O1          12.9310   -10.7140    -8.8710 o          1 7ON      -0.559000
      2 O4          17.3650   -12.3400    -9.3740 o          1 7ON      -0.620100
      3 O5          20.3020   -14.9130    -6.4910 o          1 7ON      -0.556100
      4 N2          13.2270    -8.9090   -15.7000 ns         1 7ON      -0.477900
      5 C1          13.9080   -12.1280   -10.6840 c5         1 7ON      -0.158700
      6 C3          12.8590   -14.1090    -9.8350 c5         1 7ON       0.101000
      7 C4          13.1980   -11.7980    -9.3650 c          1 7ON       0.566000
      8 C5          13.9900   -10.9400   -11.6840 c3         1 7ON      -0.067400
      9 C6          14.8190   -11.2060   -12.9720 c3         1 7ON       0.019700
     10 C21         16.2210   -17.5760    -7.3490 c6         1 7ON      -0.072900
     11 C22         15.2720   -17.5700    -8.5790 c6         1 7ON      -0.075400
     12 C23         16.0600   -17.3830    -9.8930 c6         1 7ON      -0.072900
     13 C31         19.3830   -13.2280    -4.9620 c3         1 7ON       0.224000
     14 C2          13.1160   -13.3710   -11.1780 c5         1 7ON      -0.094400
     15 N1          12.6290   -12.9700    -8.9470 ns         1 7ON      -0.515900
     16 C7          14.6770   -10.0420   -13.9910 c          1 7ON       0.486100
     17 C8          13.3340   -10.0070   -14.8540 c          1 7ON       0.500100
     18 O2          12.4690   -10.8760   -14.7770 o          1 7ON      -0.589100
     19 N3          16.2500   -11.4410   -12.6610 ns         1 7ON      -0.488900
     20 C9          16.8170   -12.6820   -12.4530 c          1 7ON       0.605100
     21 C10         18.3060   -12.5290   -12.0140 c5         1 7ON       0.032700
     22 O3          16.2030   -13.7280   -12.6190 o          1 7ON      -0.607100
     23 N4          18.6880   -13.4290   -10.8890 n          1 7ON      -0.380800
     24 C11         19.9560   -14.1640   -11.1160 c5         1 7ON       0.113000
     25 C12         20.4820   -13.5750   -12.4550 c5         1 7ON      -0.082700
     26 C13         19.2180   -13.0580   -13.1770 c5         1 7ON      -0.070700
     27 C14         21.2700   -12.2650   -12.1640 c5         1 7ON      -0.078400
     28 C15         21.2110   -11.6200   -13.5710 c5         1 7ON      -0.080400
     29 C16         19.7270   -11.8330   -14.0180 c5         1 7ON      -0.076400
     30 C17         18.0970   -13.2960    -9.6120 c          1 7ON       0.593100
     31 C18         18.3300   -14.4050    -8.5370 c3         1 7ON       0.046700
     32 C19         17.1810   -15.4740    -8.5020 c6         1 7ON      -0.070700
     33 C20         17.4580   -16.6460    -7.5160 c6         1 7ON      -0.073900
     34 C24         16.8360   -16.0360    -9.9200 c6         1 7ON      -0.073900
     35 N5          18.4820   -13.7500    -7.2160 ns         1 7ON      -0.469900
     36 C25         12.0450    -8.7980   -16.5710 c5         1 7ON       0.113700
     37 C26         12.0250    -7.3330   -17.0790 c5         1 7ON      -0.097900
     38 C27         13.2110    -7.2450   -18.0950 c5         1 7ON      -0.081400
     39 C28         13.5030    -8.7180   -18.5350 c5         1 7ON      -0.081400
     40 C29         12.3680    -9.5640   -17.8830 c5         1 7ON      -0.097900
     41 C30         19.4540   -14.0540    -6.2780 c          1 7ON       0.548100
     42 F1          20.3630   -13.5690    -4.0910 f          1 7ON      -0.101667
     43 F2          18.2000   -13.4130    -4.3300 f          1 7ON      -0.101667
     44 F3          19.5070   -11.9010    -5.2070 f          1 7ON      -0.101667
     45 O6          15.5590    -9.1930   -14.1420 o          1 7ON      -0.505100
     46 H1          13.9950    -8.2450   -15.7000 hn         1 7ON       0.336500
     47 H2          14.9140   -12.4600   -10.4110 hc         1 7ON       0.099700
     48 H3          11.9980   -14.7870    -9.8940 h1         1 7ON       0.041700
     49 H4          13.7390   -14.6870    -9.5200 h1         1 7ON       0.041700
     50 H5          14.4220   -10.0680   -11.1760 hc         1 7ON       0.067700
     51 H6          12.9720   -10.6460   -11.9680 hc         1 7ON       0.067700
     52 H7          14.4130   -12.0960   -13.4720 h1         1 7ON       0.120700
     53 H8          16.5690   -18.6000    -7.1540 hc         1 7ON       0.041950
     54 H9          15.6500   -17.2770    -6.4590 hc         1 7ON       0.041950
     55 H10         14.5370   -16.7600    -8.4770 hc         1 7ON       0.040200
     56 H11         14.6960   -18.5050    -8.6100 hc         1 7ON       0.040200
     57 H12         15.3810   -17.4400   -10.7550 hc         1 7ON       0.041950
     58 H13         16.7680   -18.2160   -10.0070 hc         1 7ON       0.041950
     59 H14         12.1700   -13.0810   -11.6490 hc         1 7ON       0.067700
     60 H15         13.6650   -13.9890   -11.8960 hc         1 7ON       0.067700
     61 H16         12.0200   -12.9590    -8.1370 hn         1 7ON       0.324500
     62 H18         16.8490   -10.6330   -12.5290 hn         1 7ON       0.328500
     63 H19         18.5130   -11.4850   -11.7450 h1         1 7ON       0.077700
     64 H20         19.7600   -15.2390   -11.2160 h1         1 7ON       0.059200
     65 H21         20.6750   -14.0230   -10.2970 h1         1 7ON       0.059200
     66 H22         21.0630   -14.2930   -13.0470 hc         1 7ON       0.068700
     67 H23         18.7380   -13.8400   -13.7780 hc         1 7ON       0.078700
     68 H24         20.8080   -11.6260   -11.4020 hc         1 7ON       0.055200
     69 H25         22.2990   -12.4620   -11.8400 hc         1 7ON       0.055200
     70 H26         21.9020   -12.1220   -14.2590 hc         1 7ON       0.046700
     71 H27         21.4930   -10.5600   -13.5550 hc         1 7ON       0.046700
     72 H28         19.6760   -12.0420   -15.0920 hc         1 7ON       0.052200
     73 H29         19.1240   -10.9310   -13.8570 hc         1 7ON       0.052200
     74 H30         19.2630   -14.9250    -8.7800 h1         1 7ON       0.081700
     75 H31         16.2940   -14.9360    -8.1370 hc         1 7ON       0.066700
     76 H32         18.3130   -17.2310    -7.8840 hc         1 7ON       0.048200
     77 H33         17.7490   -16.2710    -6.5270 hc         1 7ON       0.048200
     78 H34         17.7510   -16.1770   -10.5110 hc         1 7ON       0.048200
     79 H35         16.2360   -15.2910   -10.4580 hc         1 7ON       0.048200
     80 H36         17.8350   -13.0040    -6.9800 hn         1 7ON       0.346500
     81 H37         11.1060    -9.1070   -16.0900 h1         1 7ON       0.075700
     82 H38         12.1110    -6.6010   -16.2670 hc         1 7ON       0.056700
     83 H39         11.0750    -7.1250   -17.5850 hc         1 7ON       0.056700
     84 H40         12.9510    -6.6110   -18.9500 hc         1 7ON       0.044700
     85 H41         14.0980    -6.7960   -17.6330 hc         1 7ON       0.044700
     86 H42         13.5140    -8.8270   -19.6250 hc         1 7ON       0.044700
     87 H43         14.4890    -9.0410   -18.1790 hc         1 7ON       0.044700
     88 H44         11.4860    -9.5960   -18.5330 hc         1 7ON       0.056700
     89 H45         12.6680   -10.6030   -17.7090 hc         1 7ON       0.056700
@<TRIPOS>BOND
     1     1     7 2   
     2     2    30 2   
     3     3    41 2   
     4     4    17 1   
     5     4    36 1   
     6     4    46 1   
     7     5     7 1   
     8     5     8 1   
     9     5    14 1   
    10     5    47 1   
    11     6    14 1   
    12     6    15 1   
    13     6    48 1   
    14     6    49 1   
    15     7    15 1   
    16     8     9 1   
    17     8    50 1   
    18     8    51 1   
    19     9    16 1   
    20     9    19 1   
    21     9    52 1   
    22    10    11 1   
    23    10    33 1   
    24    10    53 1   
    25    10    54 1   
    26    11    12 1   
    27    11    55 1   
    28    11    56 1   
    29    12    34 1   
    30    12    57 1   
    31    12    58 1   
    32    13    41 1   
    33    13    42 1   
    34    13    43 1   
    35    13    44 1   
    36    14    59 1   
    37    14    60 1   
    38    15    61 1   
    39    16    17 1   
    40    16    45 2   
    41    17    18 2   
    42    19    20 1   
    43    19    62 1   
    44    20    21 1   
    45    20    22 2   
    46    21    23 1   
    47    21    26 1   
    48    21    63 1   
    49    23    24 1   
    50    23    30 1   
    51    24    25 1   
    52    24    64 1   
    53    24    65 1   
    54    25    26 1   
    55    25    27 1   
    56    25    66 1   
    57    26    29 1   
    58    26    67 1   
    59    27    28 1   
    60    27    68 1   
    61    27    69 1   
    62    28    29 1   
    63    28    70 1   
    64    28    71 1   
    65    29    72 1   
    66    29    73 1   
    67    30    31 1   
    68    31    32 1   
    69    31    35 1   
    70    31    74 1   
    71    32    33 1   
    72    32    34 1   
    73    32    75 1   
    74    33    76 1   
    75    33    77 1   
    76    34    78 1   
    77    34    79 1   
    78    35    41 1   
    79    35    80 1   
    80    36    37 1   
    81    36    40 1   
    82    36    81 1   
    83    37    38 1   
    84    37    82 1   
    85    37    83 1   
    86    38    39 1   
    87    38    84 1   
    88    38    85 1   
    89    39    40 1   
    90    39    86 1   
    91    39    87 1   
    92    40    88 1   
    93    40    89 1   
@<TRIPOS>SUBSTRUCTURE
     1 7ON         1 TEMP              0 ****  ****    0 ROOT
