@<TRIPOS>MOLECULE
7OO
   88    91     1     0     0
SMALL
No Charge or Current Charge


@<TRIPOS>ATOM
      1 C10         19.1510     7.6950    61.4760 c3         1 7OO      -0.070400
      2 C13         17.4370     7.1220    63.3680 c3         1 7OO      -0.094100
      3 C20         13.8340     7.8930    61.5070 ca         1 7OO      -0.074500
      4 C21         13.7280     6.4830    61.4500 cp         1 7OO      -0.047000
      5 C22         14.0310     5.6420    62.6500 cp         1 7OO      -0.014500
      6 C24         15.0300     3.6270    63.6460 ca         1 7OO      -0.118000
      7 C26         13.9990     5.2930    65.0840 ca         1 7OO      -0.118000
      8 C28         13.3680     5.8980    60.2130 ca         1 7OO      -0.086000
      9 C02         18.2410    12.9740    60.5040 c3         1 7OO      -0.186500
     10 C05         15.4040    12.1650    61.0500 c3         1 7OO      -0.432400
     11 C06         15.2300    10.6120    60.9710 c3         1 7OO      -0.092700
     12 C07         16.3540     9.9080    60.1640 c          1 7OO       0.594100
     13 C09         18.2150     8.2020    60.3350 c3         1 7OO       0.038700
     14 C11         18.6140     6.6340    62.4920 c3         1 7OO      -0.044700
     15 C12         18.3060     5.2550    61.8650 c3         1 7OO      -0.094100
     16 C14         17.8020     7.1050    59.3030 c          1 7OO       0.610100
     17 C18         13.8350    10.2070    60.4250 c3         1 7OO      -0.019100
     18 C19         13.6340     8.6910    60.3640 ca         1 7OO      -0.073300
     19 C23         14.7110     4.4040    62.5190 ca         1 7OO      -0.098250
     20 C25         14.6740     4.0720    64.9290 ca         1 7OO      -0.121000
     21 C27         13.6830     6.0700    63.9570 ca         1 7OO      -0.098250
     22 C29         13.1280     6.6710    59.0510 cp         1 7OO      -0.047000
     23 C30         12.7510     6.0210    57.7550 cp         1 7OO      -0.014500
     24 C31         13.2270     6.5240    56.5180 ca         1 7OO      -0.098250
     25 C32         12.8740     5.9150    55.3010 ca         1 7OO      -0.118000
     26 C33         12.0360     4.7890    55.2960 ca         1 7OO      -0.121000
     27 C34         11.5520     4.2720    56.5090 ca         1 7OO      -0.118000
     28 C35         11.9070     4.8820    57.7250 ca         1 7OO      -0.098250
     29 C36         13.2760     8.0760    59.1500 ca         1 7OO      -0.074500
     30 C38         19.3850    11.9320    60.6620 c3         1 7OO      -0.047400
     31 C39         20.2440    11.7150    59.3890 c3         1 7OO      -0.030100
     32 C40         21.0680    10.4270    59.4220 ca         1 7OO      -0.062300
     33 C41         21.0460     9.5510    58.3170 ca         1 7OO      -0.108500
     34 C42         21.7830     8.3540    58.3410 ca         1 7OO      -0.115500
     35 C43         22.5510     8.0240    59.4690 ca         1 7OO      -0.144000
     36 C44         22.5880     8.8950    60.5700 ca         1 7OO      -0.115500
     37 C45         21.8520    10.0920    60.5460 ca         1 7OO      -0.108500
     38 N01         18.8340    14.3380    60.1630 n8         1 7OO      -0.991200
     39 N08         17.0610     8.9570    60.8630 ns         1 7OO      -0.478900
     40 N15         18.8200     6.4810    58.6640 nt         1 7OO      -0.621000
     41 O04         16.6370    14.1000    62.5180 o          1 7OO      -0.806000
     42 O16         16.6520     6.7830    59.0540 o          1 7OO      -0.598100
     43 O17         16.6050    10.1780    58.9960 o          1 7OO      -0.657100
     44 O37         17.3560    11.7520    62.9150 o          1 7OO      -0.806000
     45 H102        20.0630     7.2930    61.0180 hc         1 7OO       0.045200
     46 H101        19.4840     8.5710    62.0470 hc         1 7OO       0.045200
     47 H132        17.2670     6.4260    64.1990 hc         1 7OO       0.037200
     48 H131        17.6480     8.1100    63.7960 hc         1 7OO       0.037200
     49 H133        16.5070     7.1750    62.7930 hc         1 7OO       0.037200
     50 H201        14.1080     8.3630    62.4470 ha         1 7OO       0.121500
     51 H241        15.5570     2.6840    63.5240 ha         1 7OO       0.103500
     52 H261        13.7220     5.6380    66.0770 ha         1 7OO       0.103500
     53 H281        13.2820     4.8170    60.1510 ha         1 7OO       0.105000
     54 H021        17.6580    12.6680    59.6260 h1         1 7OO       0.055700
     55 H052        15.3880    12.6060    60.0480 hc         1 7OO       0.057200
     56 H051        14.5700    12.6000    61.6110 hc         1 7OO       0.057200
     57 H061        15.2810    10.2400    62.0010 hc         1 7OO       0.077700
     58 H091        18.8090     8.9150    59.7530 h1         1 7OO       0.049700
     59 H111        19.4460     6.4620    63.1860 hc         1 7OO       0.026700
     60 H122        18.1560     4.5040    62.6510 hc         1 7OO       0.037200
     61 H123        17.3930     5.2850    61.2610 hc         1 7OO       0.037200
     62 H121        19.1360     4.9170    61.2330 hc         1 7OO       0.037200
     63 H181        13.7050    10.6500    59.4300 hc         1 7OO       0.049200
     64 H182        13.0580    10.6500    61.0590 hc         1 7OO       0.049200
     65 H231        15.0120     4.0520    61.5360 ha         1 7OO       0.121250
     66 H251        14.9210     3.4710    65.8020 ha         1 7OO       0.100500
     67 H271        13.1550     7.0100    64.0970 ha         1 7OO       0.121250
     68 H311        13.8900     7.3860    56.5010 ha         1 7OO       0.121250
     69 H321        13.2530     6.3140    54.3630 ha         1 7OO       0.103500
     70 H331        11.7620     4.3170    54.3550 ha         1 7OO       0.100500
     71 H341        10.9010     3.4010    56.5070 ha         1 7OO       0.103500
     72 H351        11.5120     4.4750    58.6530 ha         1 7OO       0.121250
     73 H361        13.1070     8.6930    58.2720 ha         1 7OO       0.121500
     74 H382        18.9460    10.9670    60.9320 hc         1 7OO       0.039200
     75 H381        20.0300    12.2190    61.5010 hc         1 7OO       0.039200
     76 H392        20.9100    12.5750    59.2510 hc         1 7OO       0.051700
     77 H391        19.5770    11.7020    58.5190 hc         1 7OO       0.051700
     78 H411        20.4520     9.7930    57.4390 ha         1 7OO       0.115500
     79 H421        21.7590     7.6840    57.4840 ha         1 7OO       0.105000
     80 H431        23.1220     7.0980    59.4870 ha         1 7OO       0.100000
     81 H441        23.1860     8.6430    61.4420 ha         1 7OO       0.105000
     82 H451        21.8930    10.7570    61.4050 ha         1 7OO       0.115500
     83 H1          18.0780    15.0150    59.9890 hn         1 7OO       0.391500
     84 H011        19.3050    14.7300    60.9890 hn         1 7OO       0.391500
     85 H081        16.7910     8.8130    61.8260 hn         1 7OO       0.383500
     86 H152        18.6100     5.7630    57.9870 hn         1 7OO       0.304000
     87 H151        19.7750     6.7460    58.8560 hn         1 7OO       0.304000
     88 P03         16.9300    12.7670    61.9010 p5         1 7OO       1.338000
@<TRIPOS>BOND
     1     1    13 1   
     2     1    14 1   
     3     1    45 1   
     4     1    46 1   
     5     2    14 1   
     6     2    47 1   
     7     2    48 1   
     8     2    49 1   
     9     3     4 ar  
    10     3    18 ar  
    11     3    50 1   
    12     4     5 1   
    13     4     8 ar  
    14     5    19 ar  
    15     5    21 ar  
    16     6    19 ar  
    17     6    20 ar  
    18     6    51 1   
    19     7    20 ar  
    20     7    21 ar  
    21     7    52 1   
    22     8    22 ar  
    23     8    53 1   
    24     9    30 1   
    25     9    38 1   
    26     9    54 1   
    27     9    88 1   
    28    10    11 1   
    29    10    55 1   
    30    10    56 1   
    31    10    88 1   
    32    11    12 1   
    33    11    17 1   
    34    11    57 1   
    35    12    39 1   
    36    12    43 2   
    37    13    16 1   
    38    13    39 1   
    39    13    58 1   
    40    14    15 1   
    41    14    59 1   
    42    15    60 1   
    43    15    61 1   
    44    15    62 1   
    45    16    40 1   
    46    16    42 2   
    47    17    18 1   
    48    17    63 1   
    49    17    64 1   
    50    18    29 ar  
    51    19    65 1   
    52    20    66 1   
    53    21    67 1   
    54    22    23 1   
    55    22    29 ar  
    56    23    24 ar  
    57    23    28 ar  
    58    24    25 ar  
    59    24    68 1   
    60    25    26 ar  
    61    25    69 1   
    62    26    27 ar  
    63    26    70 1   
    64    27    28 ar  
    65    27    71 1   
    66    28    72 1   
    67    29    73 1   
    68    30    31 1   
    69    30    74 1   
    70    30    75 1   
    71    31    32 1   
    72    31    76 1   
    73    31    77 1   
    74    32    33 ar  
    75    32    37 ar  
    76    33    34 ar  
    77    33    78 1   
    78    34    35 ar  
    79    34    79 1   
    80    35    36 ar  
    81    35    80 1   
    82    36    37 ar  
    83    36    81 1   
    84    37    82 1   
    85    38    83 1   
    86    38    84 1   
    87    39    85 1   
    88    40    86 1   
    89    40    87 1   
    90    41    88 1   
    91    44    88 1   
@<TRIPOS>SUBSTRUCTURE
     1 7OO         1 TEMP              0 ****  ****    0 ROOT
