@<TRIPOS>MOLECULE
7OO
   88    91     1     0     0
SMALL
abcg2


@<TRIPOS>ATOM
      1 C10         19.7390     8.0240    61.3010 c3         1 7OO      -0.070400
      2 C13         18.4230     7.0000    63.2590 c3         1 7OO      -0.094100
      3 C20         13.2430     7.9050    61.6170 ca         1 7OO      -0.074500
      4 C21         12.9430     6.5470    61.7050 cp         1 7OO      -0.047000
      5 C22         12.5490     5.9510    62.9980 cp         1 7OO      -0.014500
      6 C24         12.6520     4.1400    64.6010 ca         1 7OO      -0.118000
      7 C26         11.3480     6.0920    65.0960 ca         1 7OO      -0.118000
      8 C28         13.0390     5.7640    60.5550 ca         1 7OO      -0.086000
      9 C02         18.4710    12.7890    61.3600 c3         1 7OO      -0.186500
     10 C05         15.7490    11.6560    61.0890 c3         1 7OO      -0.432400
     11 C06         15.4080    10.1620    60.9890 c3         1 7OO      -0.092700
     12 C07         16.4690     9.4100    60.1970 c          1 7OO       0.594100
     13 C09         18.5880     8.2520    60.3060 c3         1 7OO       0.038700
     14 C11         19.6690     6.9350    62.3810 c3         1 7OO      -0.044700
     15 C12         19.8930     5.5190    61.8530 c3         1 7OO      -0.094100
     16 C14         18.1930     6.9800    59.5570 c          1 7OO       0.610100
     17 C18         14.0220     9.9370    60.3710 c3         1 7OO      -0.019100
     18 C19         13.6270     8.4860    60.4130 ca         1 7OO      -0.073300
     19 C23         13.0140     4.6910    63.3800 ca         1 7OO      -0.098250
     20 C25         11.8180     4.8380    65.4650 ca         1 7OO      -0.121000
     21 C27         11.7110     6.6420    63.8750 ca         1 7OO      -0.098250
     22 C29         13.4220     6.3210    59.3380 cp         1 7OO      -0.047000
     23 C30         13.5620     5.4870    58.1260 cp         1 7OO      -0.014500
     24 C31         14.6350     5.6920    57.2560 ca         1 7OO      -0.098250
     25 C32         14.7820     4.9170    56.1160 ca         1 7OO      -0.118000
     26 C33         13.8600     3.9200    55.8240 ca         1 7OO      -0.121000
     27 C34         12.7900     3.7050    56.6830 ca         1 7OO      -0.118000
     28 C35         12.6430     4.4800    57.8250 ca         1 7OO      -0.098250
     29 C36         13.7000     7.6860    59.2810 ca         1 7OO      -0.074500
     30 C38         19.0680    11.7640    60.4120 c3         1 7OO      -0.047400
     31 C39         20.1760    12.2780    59.4880 c3         1 7OO      -0.030100
     32 C40         20.6120    11.1700    58.5720 ca         1 7OO      -0.062300
     33 C41         19.9150    10.9090    57.3930 ca         1 7OO      -0.108500
     34 C42         20.2420     9.8220    56.5940 ca         1 7OO      -0.115500
     35 C43         21.2770     8.9710    56.9640 ca         1 7OO      -0.144000
     36 C44         21.9820     9.2220    58.1350 ca         1 7OO      -0.115500
     37 C45         21.6500    10.3120    58.9290 ca         1 7OO      -0.108500
     38 N01         19.5030    13.3350    62.2410 n8         1 7OO      -0.991200
     39 N08         17.4440     8.8550    60.9380 ns         1 7OO      -0.478900
     40 N15         19.0350     6.6650    58.5610 nt         1 7OO      -0.621000
     41 O04         16.5270    13.2090    63.2180 o          1 7OO      -0.806000
     42 O16         17.2240     6.2990    59.8550 o          1 7OO      -0.598100
     43 O17         16.4360     9.3270    58.9740 o          1 7OO      -0.657100
     44 O37         17.5260    10.8030    63.0270 o          1 7OO      -0.806000
     45 H102        20.6410     7.8570    60.7070 hc         1 7OO       0.045200
     46 H101        19.9020     8.9860    61.7990 hc         1 7OO       0.045200
     47 H132        18.5110     6.3000    64.0920 hc         1 7OO       0.037200
     48 H131        18.2780     7.9950    63.6840 hc         1 7OO       0.037200
     49 H133        17.5230     6.7370    62.7030 hc         1 7OO       0.037200
     50 H201        13.2000     8.5220    62.5090 ha         1 7OO       0.121500
     51 H241        13.0300     3.1650    64.8810 ha         1 7OO       0.103500
     52 H261        10.6920     6.6420    65.7570 ha         1 7OO       0.103500
     53 H281        12.8190     4.7040    60.6120 ha         1 7OO       0.105000
     54 H021        18.0670    13.6180    60.7650 h1         1 7OO       0.055700
     55 H052        16.0060    12.0620    60.1060 hc         1 7OO       0.057200
     56 H051        14.8480    12.1900    61.4040 hc         1 7OO       0.057200
     57 H061        15.3810     9.7540    62.0020 hc         1 7OO       0.077700
     58 H091        18.9910     8.9470    59.5580 h1         1 7OO       0.049700
     59 H111        20.5230     7.1560    63.0300 hc         1 7OO       0.026700
     60 H122        20.0780     4.8350    62.6830 hc         1 7OO       0.037200
     61 H123        19.0320     5.1350    61.3090 hc         1 7OO       0.037200
     62 H121        20.7600     5.4720    61.1910 hc         1 7OO       0.037200
     63 H181        13.9980    10.3100    59.3460 hc         1 7OO       0.049200
     64 H182        13.3030    10.5300    60.9420 hc         1 7OO       0.049200
     65 H231        13.6820     4.1420    62.7280 ha         1 7OO       0.121250
     66 H251        11.5370     4.4080    66.4170 ha         1 7OO       0.100500
     67 H271        11.3210     7.6130    63.5950 ha         1 7OO       0.121250
     68 H311        15.3720     6.4520    57.4820 ha         1 7OO       0.121250
     69 H321        15.6240     5.0870    55.4570 ha         1 7OO       0.103500
     70 H331        13.9740     3.3150    54.9340 ha         1 7OO       0.100500
     71 H341        12.0620     2.9350    56.4610 ha         1 7OO       0.103500
     72 H351        11.7940     4.3140    58.4770 ha         1 7OO       0.121250
     73 H361        13.9820     8.1360    58.3370 ha         1 7OO       0.121500
     74 H382        18.2760    11.3530    59.7820 hc         1 7OO       0.039200
     75 H381        19.4580    10.9250    60.9930 hc         1 7OO       0.039200
     76 H392        21.0200    12.6410    60.0760 hc         1 7OO       0.051700
     77 H391        19.8010    13.1250    58.9070 hc         1 7OO       0.051700
     78 H411        19.1030    11.5640    57.0980 ha         1 7OO       0.115500
     79 H421        19.6880     9.6370    55.6830 ha         1 7OO       0.105000
     80 H431        21.5360     8.1240    56.3420 ha         1 7OO       0.100000
     81 H441        22.7910     8.5670    58.4310 ha         1 7OO       0.105000
     82 H451        22.2010    10.4960    59.8440 ha         1 7OO       0.115500
     83 H1          19.0770    13.9920    62.8830 hn         1 7OO       0.391500
     84 H011        19.8630    12.5860    62.8230 hn         1 7OO       0.391500
     85 H081        17.5580     9.2630    61.8670 hn         1 7OO       0.383500
     86 H152        18.8970     5.8250    58.0230 hn         1 7OO       0.304000
     87 H151        19.7920     7.2710    58.2900 hn         1 7OO       0.304000
     88 P03         17.0580    12.0900    62.3450 p5         1 7OO       1.338000
@<TRIPOS>BOND
     1     1    13 1   
     2     1    14 1   
     3     1    45 1   
     4     1    46 1   
     5     2    14 1   
     6     2    47 1   
     7     2    48 1   
     8     2    49 1   
     9     3     4 ar  
    10     3    18 ar  
    11     3    50 1   
    12     4     5 1   
    13     4     8 ar  
    14     5    19 ar  
    15     5    21 ar  
    16     6    19 ar  
    17     6    20 ar  
    18     6    51 1   
    19     7    20 ar  
    20     7    21 ar  
    21     7    52 1   
    22     8    22 ar  
    23     8    53 1   
    24     9    30 1   
    25     9    38 1   
    26     9    54 1   
    27     9    88 1   
    28    10    11 1   
    29    10    55 1   
    30    10    56 1   
    31    10    88 1   
    32    11    12 1   
    33    11    17 1   
    34    11    57 1   
    35    12    39 1   
    36    12    43 2   
    37    13    16 1   
    38    13    39 1   
    39    13    58 1   
    40    14    15 1   
    41    14    59 1   
    42    15    60 1   
    43    15    61 1   
    44    15    62 1   
    45    16    40 1   
    46    16    42 2   
    47    17    18 1   
    48    17    63 1   
    49    17    64 1   
    50    18    29 ar  
    51    19    65 1   
    52    20    66 1   
    53    21    67 1   
    54    22    23 1   
    55    22    29 ar  
    56    23    24 ar  
    57    23    28 ar  
    58    24    25 ar  
    59    24    68 1   
    60    25    26 ar  
    61    25    69 1   
    62    26    27 ar  
    63    26    70 1   
    64    27    28 ar  
    65    27    71 1   
    66    28    72 1   
    67    29    73 1   
    68    30    31 1   
    69    30    74 1   
    70    30    75 1   
    71    31    32 1   
    72    31    76 1   
    73    31    77 1   
    74    32    33 ar  
    75    32    37 ar  
    76    33    34 ar  
    77    33    78 1   
    78    34    35 ar  
    79    34    79 1   
    80    35    36 ar  
    81    35    80 1   
    82    36    37 ar  
    83    36    81 1   
    84    37    82 1   
    85    38    83 1   
    86    38    84 1   
    87    39    85 1   
    88    40    86 1   
    89    40    87 1   
    90    41    88 1   
    91    44    88 1   
@<TRIPOS>SUBSTRUCTURE
     1 7OO         1 TEMP              0 ****  ****    0 ROOT
