@<TRIPOS>MOLECULE
7OP
   43    46     1     0     0
SMALL
No Charge or Current Charge


@<TRIPOS>ATOM
      1 N3          -5.6210    -0.8500     0.2630 nc         1 7OP      -0.633000
      2 C4          -4.9220     0.2100     0.7640 cc         1 7OP       0.412500
      3 C6          -2.7800    -0.3180    -0.2260 cc         1 7OP       0.006700
      4 C8          -4.3260     1.9920     1.7800 cd         1 7OP       0.544200
      5 C13          0.4430     1.4060    -1.6080 c6         1 7OP       0.154000
      6 C20          4.2500    -1.7130    -0.0510 ca         1 7OP      -0.044000
      7 C21          5.6410    -1.5090    -0.0330 ca         1 7OP      -0.160500
      8 C22          5.3200     0.5930     1.1460 ca         1 7OP      -0.160500
      9 C26          6.1710    -0.3550     0.5610 ca         1 7OP       0.193000
     10 C23          3.9280     0.3930     1.1300 ca         1 7OP      -0.044000
     11 C18          3.3780    -0.7540     0.5100 ca         1 7OP      -0.167600
     12 C1          -3.4740    -1.4070    -0.7490 cd         1 7OP      -0.216000
     13 C2          -4.8760    -1.6460    -0.4930 cd         1 7OP       0.413300
     14 C12         -1.0670     1.1880    -1.3580 c6         1 7OP      -0.126400
     15 C16         -0.4480    -0.0790     0.7760 c6         1 7OP       0.086000
     16 C14          1.2920     1.3310    -0.3120 c6         1 7OP       0.046000
     17 C11         -1.3020    -0.1000    -0.5210 c6         1 7OP      -0.044400
     18 N7          -5.4080     1.1500     1.5380 nd         1 7OP      -0.373300
     19 N9          -3.1840     1.6240     1.1960 nc         1 7OP      -0.616100
     20 N5          -3.5980     0.5030     0.5670 na         1 7OP       0.081900
     21 N15          1.0030     0.0940     0.4800 n          1 7OP      -0.392800
     22 O19          1.4570    -2.1550     0.5910 o          1 7OP      -0.573100
     23 F25          0.6360     2.6580    -2.2180 f          1 7OP      -0.115000
     24 H1          -4.4290     2.8740     2.4010 h5         1 7OP       0.074800
     25 H5           3.8490    -2.6140    -0.5130 ha         1 7OP       0.129500
     26 H6           6.3080    -2.2440    -0.4760 ha         1 7OP       0.137500
     27 H7           5.7400     1.4770     1.6190 ha         1 7OP       0.137500
     28 H8           3.2840     1.1240     1.6150 ha         1 7OP       0.129500
     29 H9          -2.9460    -2.1140    -1.3790 ha         1 7OP       0.147000
     30 H10         -1.4710     2.0630    -0.8330 hc         1 7OP       0.086200
     31 H11         -1.6020     1.1240    -2.3150 hc         1 7OP       0.086200
     32 H12         -0.7680     0.7480     1.4250 h1         1 7OP       0.084700
     33 H13         -0.6180    -1.0050     1.3440 h1         1 7OP       0.084700
     34 H14          2.3500     1.3840    -0.6010 h1         1 7OP       0.087200
     35 H15          1.0800     2.2120     0.3110 h1         1 7OP       0.087200
     36 H16         -0.9380    -0.9480    -1.1180 hc         1 7OP       0.086700
     37 C10         -5.5890    -2.8330    -1.0750 c3         1 7OP      -0.154400
     38 F24          0.9090     0.4450    -2.5240 f          1 7OP      -0.115000
     39 C17          1.8870    -1.0120     0.4980 c          1 7OP       0.619700
     40 F27          7.5080    -0.1620     0.5810 f          1 7OP      -0.173000
     41 H2          -5.8750    -3.5390    -0.2870 hc         1 7OP       0.064700
     42 H3          -6.4990    -2.5270    -1.6020 hc         1 7OP       0.064700
     43 H4          -4.9560    -3.3700    -1.7900 hc         1 7OP       0.064700
@<TRIPOS>BOND
     1     1     2 1   
     2     1    13 2   
     3     2    18 2   
     4     2    20 1   
     5     3    12 2   
     6     3    17 1   
     7     3    20 1   
     8     4    18 1   
     9     4    19 2   
    10     4    24 1   
    11     5    14 1   
    12     5    16 1   
    13     5    23 1   
    14     5    38 1   
    15     6     7 ar  
    16     6    11 ar  
    17     6    25 1   
    18     7     9 ar  
    19     7    26 1   
    20     8     9 ar  
    21     8    10 ar  
    22     8    27 1   
    23     9    40 1   
    24    10    11 ar  
    25    10    28 1   
    26    11    39 1   
    27    12    13 1   
    28    12    29 1   
    29    13    37 1   
    30    14    17 1   
    31    14    30 1   
    32    14    31 1   
    33    15    17 1   
    34    15    21 1   
    35    15    32 1   
    36    15    33 1   
    37    16    21 1   
    38    16    34 1   
    39    16    35 1   
    40    17    36 1   
    41    19    20 1   
    42    21    39 1   
    43    22    39 2   
    44    37    41 1   
    45    37    42 1   
    46    37    43 1   
@<TRIPOS>SUBSTRUCTURE
     1 7OP         1 TEMP              0 ****  ****    0 ROOT
