@<TRIPOS>MOLECULE
7OP
   43    46     1     0     0
SMALL
bcc


@<TRIPOS>ATOM
      1 N3          -5.4660    -0.7730     0.0940 nc         1 7OP      -0.633000
      2 C4          -4.8470     0.3230     0.5330 cc         1 7OP       0.412500
      3 C6          -2.6930    -0.3920    -0.2260 cc         1 7OP       0.057400
      4 C8          -4.2980     2.1580     1.3560 cd         1 7OP       0.544200
      5 C13          0.5520     1.2970    -1.3780 c6         1 7OP       0.396600
      6 C20          3.9080    -1.4670    -0.3690 ca         1 7OP      -0.062000
      7 C21          5.2790    -1.3270    -0.5100 ca         1 7OP      -0.178500
      8 C22          5.2690     0.3780     1.2090 ca         1 7OP      -0.178500
      9 C26          5.9340    -0.4060     0.2860 ca         1 7OP       0.157900
     10 C23          3.8940     0.2420     1.3230 ca         1 7OP      -0.062000
     11 C18          3.2050    -0.6750     0.5330 ca         1 7OP      -0.167600
     12 C1          -3.3250    -1.5140    -0.6730 cd         1 7OP      -0.299300
     13 C2          -4.7240    -1.6770    -0.4990 cd         1 7OP       0.478600
     14 C12         -0.9370     1.0530    -1.2950 c6         1 7OP      -0.126400
     15 C16         -0.4950     0.0010     0.9590 c6         1 7OP       0.086000
     16 C14          1.2200     1.3940    -0.0150 c6         1 7OP       0.046000
     17 C11         -1.2260    -0.1520    -0.3850 c6         1 7OP      -0.044400
     18 N7          -5.3630     1.3690     1.1550 nd         1 7OP      -0.373300
     19 N9          -3.1450     1.7020     0.9130 nc         1 7OP      -0.616100
     20 N5          -3.4950     0.5210     0.3830 na         1 7OP       0.031200
     21 N15          0.9270     0.1830     0.7250 n          1 7OP      -0.459800
     22 O19          1.3210    -2.0420     0.8730 o          1 7OP      -0.573100
     23 F25          0.8030     2.4340    -2.0860 f          1 7OP      -0.236300
     24 H1          -4.3600     3.1160     1.8500 h5         1 7OP       0.074800
     25 H5           3.3860    -2.1930    -0.9780 ha         1 7OP       0.147500
     26 H6           5.8300    -1.9260    -1.2230 ha         1 7OP       0.155500
     27 H7           5.8110     1.0810     1.8270 ha         1 7OP       0.155500
     28 H8           3.3640     0.8490     2.0460 ha         1 7OP       0.147500
     29 H9          -2.7500    -2.2820    -1.1690 ha         1 7OP       0.165000
     30 H10         -1.4030     1.9530    -0.8900 hc         1 7OP       0.086200
     31 H11         -1.3430     0.8840    -2.2950 hc         1 7OP       0.086200
     32 H12         -0.8600     0.8780     1.4940 h1         1 7OP       0.084700
     33 H13         -0.6560    -0.8700     1.5900 h1         1 7OP       0.084700
     34 H14          2.2890     1.5480    -0.1380 h1         1 7OP       0.087200
     35 H15          0.8190     2.2550     0.5240 h1         1 7OP       0.087200
     36 H16         -0.8410    -1.0540    -0.8670 hc         1 7OP       0.086700
     37 C10         -5.3810    -2.9160    -1.0110 c3         1 7OP      -0.154400
     38 F24          1.1490     0.2780    -2.0750 f          1 7OP      -0.236300
     39 C17          1.7410    -0.9100     0.7060 c          1 7OP       0.686700
     40 F27          7.2610    -0.2710     0.1600 f          1 7OP      -0.137900
     41 H2          -4.9330    -3.8020    -0.5600 hc         1 7OP       0.064700
     42 H3          -6.4470    -2.9100    -0.7950 hc         1 7OP       0.064700
     43 H4          -5.2410    -3.0020    -2.0890 hc         1 7OP       0.064700
@<TRIPOS>BOND
     1     1     2 1   
     2     1    13 2   
     3     2    18 2   
     4     2    20 1   
     5     3    12 2   
     6     3    17 1   
     7     3    20 1   
     8     4    18 1   
     9     4    19 2   
    10     4    24 1   
    11     5    14 1   
    12     5    16 1   
    13     5    23 1   
    14     5    38 1   
    15     6     7 ar  
    16     6    11 ar  
    17     6    25 1   
    18     7     9 ar  
    19     7    26 1   
    20     8     9 ar  
    21     8    10 ar  
    22     8    27 1   
    23     9    40 1   
    24    10    11 ar  
    25    10    28 1   
    26    11    39 1   
    27    12    13 1   
    28    12    29 1   
    29    13    37 1   
    30    14    17 1   
    31    14    30 1   
    32    14    31 1   
    33    15    17 1   
    34    15    21 1   
    35    15    32 1   
    36    15    33 1   
    37    16    21 1   
    38    16    34 1   
    39    16    35 1   
    40    17    36 1   
    41    19    20 1   
    42    21    39 1   
    43    22    39 2   
    44    37    41 1   
    45    37    42 1   
    46    37    43 1   
@<TRIPOS>SUBSTRUCTURE
     1 7OP         1 TEMP              0 ****  ****    0 ROOT
