@<TRIPOS>MOLECULE
7OQ
   35    36     1     0     0
SMALL
abcg2


@<TRIPOS>ATOM
      1 O7          20.2220   -39.2670    42.4160 oh         1 7OQ      -0.534100
      2 C12         20.0220   -38.4660    41.3460 ca         1 7OQ       0.111100
      3 C10         20.4560   -38.9090    40.1020 ca         1 7OQ      -0.144500
      4 C8          20.2910   -38.1240    38.9680 ca         1 7OQ      -0.116000
      5 C11         19.4070   -37.2200    41.4380 ca         1 7OQ      -0.144500
      6 C9          19.2300   -36.4410    40.3070 ca         1 7OQ      -0.116000
      7 C7          19.6710   -36.8830    39.0650 ca         1 7OQ       0.105100
      8 O4          19.4620   -36.0340    38.0180 os         1 7OQ      -0.344100
      9 C5          19.5560   -36.5010    36.7150 c6         1 7OQ       0.368300
     10 O1          20.9070   -36.5140    36.3550 os         1 7OQ      -0.460000
     11 C3          18.7800   -35.5330    35.8250 c6         1 7OQ       0.104300
     12 O5          17.4020   -35.5740    36.0990 oh         1 7OQ      -0.721000
     13 C1          18.9680   -35.9080    34.3580 c6         1 7OQ       0.178300
     14 O2          18.3950   -34.9440    33.5120 oh         1 7OQ      -0.642000
     15 C2          20.4500   -36.0200    34.0340 c6         1 7OQ       0.149300
     16 O3          20.5800   -36.4970    32.7180 oh         1 7OQ      -0.704000
     17 C4          21.1110   -36.9830    35.0330 c6         1 7OQ       0.145300
     18 C6          22.5970   -37.1650    34.8130 c3         1 7OQ       0.166600
     19 O6          23.2360   -35.9130    34.8290 oh         1 7OQ      -0.711000
     20 H16         19.8740   -38.8530    43.2140 ho         1 7OQ       0.463000
     21 H14         20.9400   -39.8740    40.0160 ha         1 7OQ       0.121500
     22 H12         20.6680   -38.5000    38.0270 ha         1 7OQ       0.125000
     23 H15         19.0570   -36.8510    42.3960 ha         1 7OQ       0.121500
     24 H13         18.7440   -35.4770    40.3890 ha         1 7OQ       0.125000
     25 H5          19.1220   -37.5130    36.6280 h2         1 7OQ       0.043700
     26 H3          19.1940   -34.5260    35.9790 h1         1 7OQ       0.071700
     27 H10         17.2300   -35.0660    36.8980 ho         1 7OQ       0.523000
     28 H1          18.5070   -36.8980    34.1960 h1         1 7OQ       0.051700
     29 H8          17.4570   -34.8880    33.7200 ho         1 7OQ       0.459000
     30 H2          20.9020   -35.0260    34.1470 h1         1 7OQ       0.075700
     31 H9          21.4360   -36.2240    32.3750 ho         1 7OQ       0.511000
     32 H4          20.6500   -37.9770    34.9100 h1         1 7OQ       0.047700
     33 H6          22.9820   -37.8350    35.5930 h1         1 7OQ       0.032700
     34 H7          22.7350   -37.6880    33.8590 h1         1 7OQ       0.032700
     35 H11         24.1600   -36.0420    34.5970 ho         1 7OQ       0.506000
@<TRIPOS>BOND
     1     1     2 1   
     2     1    20 1   
     3     2     3 ar  
     4     2     5 ar  
     5     3     4 ar  
     6     3    21 1   
     7     4     7 ar  
     8     4    22 1   
     9     5     6 ar  
    10     5    23 1   
    11     6     7 ar  
    12     6    24 1   
    13     7     8 1   
    14     8     9 1   
    15     9    10 1   
    16     9    11 1   
    17     9    25 1   
    18    10    17 1   
    19    11    12 1   
    20    11    13 1   
    21    11    26 1   
    22    12    27 1   
    23    13    14 1   
    24    13    15 1   
    25    13    28 1   
    26    14    29 1   
    27    15    16 1   
    28    15    17 1   
    29    15    30 1   
    30    16    31 1   
    31    17    18 1   
    32    17    32 1   
    33    18    19 1   
    34    18    33 1   
    35    18    34 1   
    36    19    35 1   
@<TRIPOS>SUBSTRUCTURE
     1 7OQ         1 TEMP              0 ****  ****    0 ROOT
