@<TRIPOS>MOLECULE
7OQ
   35    36     1     0     0
SMALL
No Charge or Current Charge


@<TRIPOS>ATOM
      1 O7          20.4360   -39.2520    42.4210 oh         1 7OQ      -0.534100
      2 C12         20.1270   -38.4880    41.3350 ca         1 7OQ       0.111100
      3 C10         20.3290   -39.0020    40.0450 ca         1 7OQ      -0.144500
      4 C8          20.0150   -38.2250    38.9140 ca         1 7OQ      -0.116000
      5 C11         19.6070   -37.1940    41.5010 ca         1 7OQ      -0.144500
      6 C9          19.2920   -36.4150    40.3730 ca         1 7OQ      -0.116000
      7 C7          19.4950   -36.9190    39.0760 ca         1 7OQ       0.105100
      8 O4          19.1550   -36.1030    38.0130 os         1 7OQ      -0.344100
      9 C5          19.3960   -36.5010    36.6490 c6         1 7OQ       0.368300
     10 O1          20.8170   -36.5480    36.4030 os         1 7OQ      -0.460000
     11 C3          18.7410   -35.4740    35.6690 c6         1 7OQ       0.104300
     12 O5          17.3120   -35.3270    35.8800 oh         1 7OQ      -0.721000
     13 C1          19.0340   -35.9330    34.2140 c6         1 7OQ       0.178300
     14 O2          18.4660   -34.9990    33.2800 oh         1 7OQ      -0.642000
     15 C2          20.5700   -36.0820    33.9850 c6         1 7OQ       0.149300
     16 O3          20.8200   -36.5730    32.6510 oh         1 7OQ      -0.704000
     17 C4          21.1730   -37.0260    35.0780 c6         1 7OQ       0.145300
     18 C6          22.7340   -37.1250    34.9990 c3         1 7OQ       0.166600
     19 O6          23.4130   -35.8860    35.2930 oh         1 7OQ      -0.711000
     20 H16         20.2320   -38.7400    43.2340 ho         1 7OQ       0.463000
     21 H14         20.7310   -40.0050    39.9190 ha         1 7OQ       0.121500
     22 H12         20.1830   -38.6520    37.9300 ha         1 7OQ       0.125000
     23 H15         19.4450   -36.7870    42.4970 ha         1 7OQ       0.121500
     24 H13         18.8890   -35.4130    40.5030 ha         1 7OQ       0.125000
     25 H5          18.9520   -37.4930    36.4770 h2         1 7OQ       0.043700
     26 H3          19.2410   -34.5070    35.8300 h1         1 7OQ       0.071700
     27 H10         17.1830   -35.1560    36.8450 ho         1 7OQ       0.523000
     28 H1          18.5690   -36.9210    34.0730 h1         1 7OQ       0.051700
     29 H8          17.6080   -34.7360    33.6850 ho         1 7OQ       0.459000
     30 H2          21.0280   -35.0890    34.1090 h1         1 7OQ       0.075700
     31 H9          20.2060   -36.0630    32.0690 ho         1 7OQ       0.511000
     32 H4          20.7620   -38.0380    34.9480 h1         1 7OQ       0.047700
     33 H6          23.0520   -37.9010    35.7090 h1         1 7OQ       0.032700
     34 H7          23.0090   -37.4800    33.9970 h1         1 7OQ       0.032700
     35 H11         24.3790   -36.0810    35.2920 ho         1 7OQ       0.506000
@<TRIPOS>BOND
     1     1     2 1   
     2     1    20 1   
     3     2     3 ar  
     4     2     5 ar  
     5     3     4 ar  
     6     3    21 1   
     7     4     7 ar  
     8     4    22 1   
     9     5     6 ar  
    10     5    23 1   
    11     6     7 ar  
    12     6    24 1   
    13     7     8 1   
    14     8     9 1   
    15     9    10 1   
    16     9    11 1   
    17     9    25 1   
    18    10    17 1   
    19    11    12 1   
    20    11    13 1   
    21    11    26 1   
    22    12    27 1   
    23    13    14 1   
    24    13    15 1   
    25    13    28 1   
    26    14    29 1   
    27    15    16 1   
    28    15    17 1   
    29    15    30 1   
    30    16    31 1   
    31    17    18 1   
    32    17    32 1   
    33    18    19 1   
    34    18    33 1   
    35    18    34 1   
    36    19    35 1   
@<TRIPOS>SUBSTRUCTURE
     1 7OQ         1 TEMP              0 ****  ****    0 ROOT
