@<TRIPOS>MOLECULE
7OS
   73    77     1     0     0
SMALL
abcg2


@<TRIPOS>ATOM
      1 O3           6.7170     0.0230     0.3010 os         1 7OS      -0.402100
      2 C7          -7.0550    -0.4680     0.9380 c3         1 7OS      -0.183700
      3 C6          -5.9870    -0.9470    -0.0640 c3         1 7OS       0.018600
      4 C5          -3.8120     0.3170    -0.2000 ca         1 7OS      -0.145000
      5 C4          -5.1460     0.2040    -0.5610 ca         1 7OS      -0.001300
      6 C3          -5.6960     1.1980    -1.3740 ca         1 7OS      -0.134000
      7 C2          -4.9170     2.2540    -1.8110 ca         1 7OS      -0.085000
      8 C1          -3.5760     2.3800    -1.4530 ca         1 7OS      -0.188300
      9 O1          -9.1140    -1.6620     1.1590 o          1 7OS      -0.735500
     10 O2          -1.7510     1.4230    -0.2060 os         1 7OS      -0.352100
     11 C8          -7.8980    -1.6580     1.4400 c          1 7OS       0.720000
     12 C9          -6.4250     0.2610     2.1230 c3         1 7OS      -0.064100
     13 C10         -6.6060    -1.6910    -1.2300 cx         1 7OS      -0.084700
     14 C11         -6.7770    -3.1760    -1.1840 cx         1 7OS      -0.138400
     15 C12         -5.7420    -2.5680    -2.0830 cx         1 7OS      -0.138400
     16 C13         -2.7280     3.5220    -1.9450 c6         1 7OS      -0.014100
     17 C14         -1.2500     3.2170    -1.7450 c6         1 7OS      -0.107400
     18 C15         -1.0420     2.6520    -0.3500 c6         1 7OS       0.181300
     19 C16          0.4130     2.4070     0.0270 c6         1 7OS      -0.050700
     20 C17          0.5720     1.9770     1.4810 c6         1 7OS      -0.071400
     21 C18          2.0340     1.7720     1.8500 c6         1 7OS       0.167800
     22 C19          2.5790     1.2310    -0.4120 c6         1 7OS       0.167800
     23 C20          1.1390     1.4060    -0.8660 c6         1 7OS      -0.071400
     24 C21          4.0380     0.4760     1.3280 c3         1 7OS       0.234800
     25 C22          4.4710    -0.7760     0.5860 ca         1 7OS      -0.034300
     26 C23          5.7660    -0.9800     0.1200 ca         1 7OS       0.065100
     27 C24          6.1630    -2.1810    -0.4480 ca         1 7OS      -0.088000
     28 C25          5.2520    -3.2140    -0.5880 ca         1 7OS      -0.150000
     29 C26          3.9620    -3.0060    -0.1400 ca         1 7OS       0.182000
     30 C27          3.5650    -1.8230     0.4440 ca         1 7OS      -0.124000
     31 C28          7.0420     0.7880    -0.7480 c3         1 7OS       0.513000
     32 C29          4.2350     0.2070     2.8220 c3         1 7OS      -0.091100
     33 F3           7.8850     1.7140    -0.3210 f          1 7OS      -0.111000
     34 F1           7.6390     0.1040    -1.7270 f          1 7OS      -0.111000
     35 F2           5.9890     1.3950    -1.2970 f          1 7OS      -0.111000
     36 F            3.0640    -3.9950    -0.2670 f          1 7OS      -0.168000
     37 N            2.6630     0.7970     0.9740 n3         1 7OS      -0.724600
     38 C           -3.0360     1.3950    -0.6280 ca         1 7OS       0.131100
     39 O           -7.2940    -2.5200     2.1120 o          1 7OS      -0.735500
     40 H1          -7.7180     0.2290     0.4130 hc         1 7OS       0.032700
     41 H2          -5.3270    -1.6420     0.4680 hc         1 7OS       0.066700
     42 H3          -3.3540    -0.4360     0.4310 ha         1 7OS       0.126000
     43 H4          -6.7350     1.1460    -1.6740 ha         1 7OS       0.121000
     44 H5          -5.3560     3.0090    -2.4540 ha         1 7OS       0.094000
     45 H7          -5.7300    -0.3920     2.6540 hc         1 7OS       0.016367
     46 H8          -5.8760     1.1490     1.8080 hc         1 7OS       0.016367
     47 H9          -7.1880     0.5820     2.8350 hc         1 7OS       0.016367
     48 H10         -7.3860    -1.1450    -1.7520 hc         1 7OS       0.069700
     49 H11         -6.4430    -3.6920    -0.2930 hc         1 7OS       0.065450
     50 H12         -7.6640    -3.6020    -1.6360 hc         1 7OS       0.065450
     51 H13         -5.9120    -2.5840    -3.1530 hc         1 7OS       0.065450
     52 H14         -4.7010    -2.6730    -1.8000 hc         1 7OS       0.065450
     53 H15         -2.9400     3.7130    -2.9990 hc         1 7OS       0.041200
     54 H16         -2.9930     4.4390    -1.4110 hc         1 7OS       0.041200
     55 H17         -0.9070     2.4990    -2.4950 hc         1 7OS       0.047200
     56 H18         -0.6490     4.1200    -1.8660 hc         1 7OS       0.047200
     57 H19         -1.4580     3.3730     0.3720 h1         1 7OS       0.040700
     58 H20          0.9070     3.3800    -0.0890 hc         1 7OS       0.038700
     59 H21          0.1420     2.7280     2.1500 hc         1 7OS       0.058700
     60 H22          0.0330     1.0420     1.6570 hc         1 7OS       0.058700
     61 H23          2.5630     2.7420     1.8230 h1         1 7OS       0.029200
     62 H24          2.0780     1.4190     2.8800 h1         1 7OS       0.029200
     63 H25          3.0620     0.4890    -1.0510 h1         1 7OS       0.029200
     64 H26          3.1250     2.1790    -0.5620 h1         1 7OS       0.029200
     65 H27          0.6320     0.4380    -0.8390 hc         1 7OS       0.058700
     66 H28          1.1440     1.7370    -1.9070 hc         1 7OS       0.058700
     67 H29          4.7020     1.3110     1.0620 h1         1 7OS       0.035700
     68 H30          7.1860    -2.3270    -0.7660 ha         1 7OS       0.133000
     69 H31          5.5450    -4.1560    -1.0300 ha         1 7OS       0.137000
     70 H32          2.5450    -1.6900     0.7820 ha         1 7OS       0.168000
     71 H33          3.5270    -0.5410     3.1820 hc         1 7OS       0.045033
     72 H34          5.2410    -0.1730     2.9970 hc         1 7OS       0.045033
     73 H35          4.1250     1.1100     3.4210 hc         1 7OS       0.045033
@<TRIPOS>BOND
     1     1    26 1   
     2     1    31 1   
     3     2     3 1   
     4     2    11 1   
     5     2    12 1   
     6     2    40 1   
     7     3     5 1   
     8     3    13 1   
     9     3    41 1   
    10     4     5 ar  
    11     4    38 ar  
    12     4    42 1   
    13     5     6 ar  
    14     6     7 ar  
    15     6    43 1   
    16     7     8 ar  
    17     7    44 1   
    18     8    16 1   
    19     8    38 ar  
    20     9    11 1   
    21    10    18 1   
    22    10    38 1   
    23    11    39 1   
    24    12    45 1   
    25    12    46 1   
    26    12    47 1   
    27    13    14 1   
    28    13    15 1   
    29    13    48 1   
    30    14    15 1   
    31    14    49 1   
    32    14    50 1   
    33    15    51 1   
    34    15    52 1   
    35    16    17 1   
    36    16    53 1   
    37    16    54 1   
    38    17    18 1   
    39    17    55 1   
    40    17    56 1   
    41    18    19 1   
    42    18    57 1   
    43    19    20 1   
    44    19    23 1   
    45    19    58 1   
    46    20    21 1   
    47    20    59 1   
    48    20    60 1   
    49    21    37 1   
    50    21    61 1   
    51    21    62 1   
    52    22    23 1   
    53    22    37 1   
    54    22    63 1   
    55    22    64 1   
    56    23    65 1   
    57    23    66 1   
    58    24    25 1   
    59    24    32 1   
    60    24    37 1   
    61    24    67 1   
    62    25    26 ar  
    63    25    30 ar  
    64    26    27 ar  
    65    27    28 ar  
    66    27    68 1   
    67    28    29 ar  
    68    28    69 1   
    69    29    30 ar  
    70    29    36 1   
    71    30    70 1   
    72    31    33 1   
    73    31    34 1   
    74    31    35 1   
    75    32    71 1   
    76    32    72 1   
    77    32    73 1   
@<TRIPOS>SUBSTRUCTURE
     1 7OS         1 TEMP              0 ****  ****    0 ROOT
