@<TRIPOS>MOLECULE
7OS
   73    77     1     0     0
SMALL
No Charge or Current Charge


@<TRIPOS>ATOM
      1 O3           6.6040     0.4940    -0.0360 os         1 7OS      -0.402100
      2 C7          -7.4900    -0.3690     0.8400 c3         1 7OS      -0.183700
      3 C6          -6.2470    -0.8690     0.0400 c3         1 7OS       0.018600
      4 C5          -4.0140     0.3440    -0.0550 ca         1 7OS      -0.145000
      5 C4          -5.3640     0.2790    -0.4560 ca         1 7OS      -0.001300
      6 C3          -5.8780     1.2730    -1.3190 ca         1 7OS      -0.134000
      7 C2          -5.0620     2.3220    -1.7800 ca         1 7OS      -0.085000
      8 C1          -3.7150     2.3840    -1.3770 ca         1 7OS      -0.188300
      9 O1          -9.4820    -1.6640     1.0020 o          1 7OS      -0.735500
     10 O2          -1.8810     1.4240    -0.0900 os         1 7OS      -0.352100
     11 C8          -8.3290    -1.5480     1.3910 c          1 7OS       0.720000
     12 C9          -7.1130     0.6080     1.9850 c3         1 7OS      -0.064100
     13 C10         -6.6350    -1.7720    -1.1360 cx         1 7OS      -0.084700
     14 C11         -6.7260    -3.2740    -0.9930 cx         1 7OS      -0.138400
     15 C12         -5.6070    -2.6580    -1.8000 cx         1 7OS      -0.138400
     16 C13         -2.8210     3.5140    -1.8920 c6         1 7OS      -0.014100
     17 C14         -1.3280     3.1820    -1.7060 c6         1 7OS      -0.107400
     18 C15         -1.0980     2.6230    -0.2810 c6         1 7OS       0.181300
     19 C16          0.4060     2.3700     0.0500 c6         1 7OS      -0.050700
     20 C17          0.6000     2.0030     1.5440 c6         1 7OS      -0.071400
     21 C18          2.0890     1.7490     1.8780 c6         1 7OS       0.167800
     22 C19          2.5330     1.0280    -0.4240 c6         1 7OS       0.167800
     23 C20          1.0570     1.2610    -0.8230 c6         1 7OS      -0.071400
     24 C21          4.0950     0.3320     1.3760 c3         1 7OS       0.234800
     25 C22          4.6500    -0.8070     0.5030 ca         1 7OS      -0.034300
     26 C23          5.8890    -0.6860    -0.1780 ca         1 7OS       0.065100
     27 C24          6.3560    -1.7660    -0.9690 ca         1 7OS      -0.088000
     28 C25          5.6000    -2.9470    -1.0760 ca         1 7OS      -0.150000
     29 C26          4.3810    -3.0610    -0.3980 ca         1 7OS       0.182000
     30 C27          3.9090    -2.0030     0.3870 ca         1 7OS      -0.124000
     31 C28          7.8700     0.7660    -0.6720 c3         1 7OS       0.513000
     32 C29          4.2940    -0.0560     2.8610 c3         1 7OS      -0.091100
     33 F3           8.3090     2.0010    -0.3450 f          1 7OS      -0.111000
     34 F1           8.8310    -0.1060    -0.2880 f          1 7OS      -0.111000
     35 F2           7.7820     0.7250    -2.0210 f          1 7OS      -0.111000
     36 F            3.6570    -4.1970    -0.5030 f          1 7OS      -0.168000
     37 N            2.6810     0.6760     1.0220 n3         1 7OS      -0.724600
     38 C           -3.1970     1.3960    -0.5030 ca         1 7OS       0.131100
     39 O           -7.8250    -2.2910     2.2220 o          1 7OS      -0.735500
     40 H1          -8.1310     0.1870     0.1450 hc         1 7OS       0.032700
     41 H2          -5.6460    -1.4670     0.7360 hc         1 7OS       0.066700
     42 H3          -3.5950    -0.4100     0.6050 ha         1 7OS       0.126000
     43 H4          -6.9160     1.2300    -1.6400 ha         1 7OS       0.121000
     44 H5          -5.4740     3.0760    -2.4480 ha         1 7OS       0.094000
     45 H7          -6.4080     0.1410     2.6840 hc         1 7OS       0.016367
     46 H8          -6.6530     1.5220     1.5930 hc         1 7OS       0.016367
     47 H9          -8.0080     0.9010     2.5470 hc         1 7OS       0.016367
     48 H10         -7.3580    -1.3020    -1.8000 hc         1 7OS       0.069700
     49 H11         -6.4710    -3.7160    -0.0320 hc         1 7OS       0.065450
     50 H12         -7.5200    -3.7850    -1.5310 hc         1 7OS       0.065450
     51 H13         -5.6480    -2.7550    -2.8820 hc         1 7OS       0.065450
     52 H14         -4.6050    -2.6830    -1.3780 hc         1 7OS       0.065450
     53 H15         -3.0270     3.7130    -2.9530 hc         1 7OS       0.041200
     54 H16         -3.0630     4.4380    -1.3480 hc         1 7OS       0.041200
     55 H17         -1.0260     2.4420    -2.4580 hc         1 7OS       0.047200
     56 H18         -0.7190     4.0810    -1.8740 hc         1 7OS       0.047200
     57 H19         -1.4730     3.3750     0.4290 h1         1 7OS       0.040700
     58 H20          0.9490     3.3080    -0.1340 hc         1 7OS       0.038700
     59 H21          0.2160     2.8080     2.1830 hc         1 7OS       0.058700
     60 H22          0.0200     1.1030     1.7920 hc         1 7OS       0.058700
     61 H23          2.6520     2.6860     1.7560 h1         1 7OS       0.029200
     62 H24          2.1400     1.4760     2.9410 h1         1 7OS       0.029200
     63 H25          2.9280     0.2280    -1.0660 h1         1 7OS       0.029200
     64 H26          3.1120     1.9350    -0.6520 h1         1 7OS       0.029200
     65 H27          0.5020     0.3190    -0.7180 hc         1 7OS       0.058700
     66 H28          1.0190     1.5320    -1.8860 hc         1 7OS       0.058700
     67 H29          4.7050     1.2300     1.2090 h1         1 7OS       0.035700
     68 H30          7.2970    -1.7140    -1.5060 ha         1 7OS       0.133000
     69 H31          5.9600    -3.7730    -1.6840 ha         1 7OS       0.137000
     70 H32          2.9570    -2.1050     0.9030 ha         1 7OS       0.168000
     71 H33          3.5960    -0.8490     3.1550 hc         1 7OS       0.045033
     72 H34          5.3150    -0.4210     3.0240 hc         1 7OS       0.045033
     73 H35          4.1490     0.8040     3.5230 hc         1 7OS       0.045033
@<TRIPOS>BOND
     1     1    26 1   
     2     1    31 1   
     3     2     3 1   
     4     2    11 1   
     5     2    12 1   
     6     2    40 1   
     7     3     5 1   
     8     3    13 1   
     9     3    41 1   
    10     4     5 ar  
    11     4    38 ar  
    12     4    42 1   
    13     5     6 ar  
    14     6     7 ar  
    15     6    43 1   
    16     7     8 ar  
    17     7    44 1   
    18     8    16 1   
    19     8    38 ar  
    20     9    11 1   
    21    10    18 1   
    22    10    38 1   
    23    11    39 1   
    24    12    45 1   
    25    12    46 1   
    26    12    47 1   
    27    13    14 1   
    28    13    15 1   
    29    13    48 1   
    30    14    15 1   
    31    14    49 1   
    32    14    50 1   
    33    15    51 1   
    34    15    52 1   
    35    16    17 1   
    36    16    53 1   
    37    16    54 1   
    38    17    18 1   
    39    17    55 1   
    40    17    56 1   
    41    18    19 1   
    42    18    57 1   
    43    19    20 1   
    44    19    23 1   
    45    19    58 1   
    46    20    21 1   
    47    20    59 1   
    48    20    60 1   
    49    21    37 1   
    50    21    61 1   
    51    21    62 1   
    52    22    23 1   
    53    22    37 1   
    54    22    63 1   
    55    22    64 1   
    56    23    65 1   
    57    23    66 1   
    58    24    25 1   
    59    24    32 1   
    60    24    37 1   
    61    24    67 1   
    62    25    26 ar  
    63    25    30 ar  
    64    26    27 ar  
    65    27    28 ar  
    66    27    68 1   
    67    28    29 ar  
    68    28    69 1   
    69    29    30 ar  
    70    29    36 1   
    71    30    70 1   
    72    31    33 1   
    73    31    34 1   
    74    31    35 1   
    75    32    71 1   
    76    32    72 1   
    77    32    73 1   
@<TRIPOS>SUBSTRUCTURE
     1 7OS         1 TEMP              0 ****  ****    0 ROOT
