@<TRIPOS>MOLECULE
7OT
  102   101     1     0     0
SMALL
No Charge or Current Charge


@<TRIPOS>ATOM
      1 CM1        119.7870   148.0170   115.1840 c3         1 7OT       0.151900
      2 O1         119.9170   146.8430   116.0180 os         1 7OT      -0.462000
      3 C1         121.2250   146.2250   116.1560 c3         1 7OT       0.190000
      4 C2         121.7020   145.7370   114.7630 c3         1 7OT      -0.117100
      5 C3         122.2150   147.2500   116.7710 c3         1 7OT      -0.117100
      6 C4         121.0170   145.0100   117.1060 c3         1 7OT      -0.036200
      7 C5         120.4980   145.3800   118.4860 c2         1 7OT      -0.187200
      8 C6         121.2050   145.2980   119.6380 ce         1 7OT      -0.200000
      9 C7         120.7260   145.6700   120.9840 ce         1 7OT      -0.053200
     10 C8         119.2200   145.8400   121.1700 c3         1 7OT      -0.055900
     11 C9         121.6170   145.7870   122.0130 cf         1 7OT      -0.189000
     12 C10        121.3300   146.1440   123.4010 cf         1 7OT      -0.165000
     13 C11        122.2730   146.1820   124.3850 ce         1 7OT      -0.181000
     14 C12        122.0710   146.5460   125.8030 ce         1 7OT      -0.060200
     15 C13        120.6360   146.5670   126.3230 c3         1 7OT      -0.054900
     16 C14        123.1530   146.7840   126.6030 cf         1 7OT      -0.181000
     17 C15        123.1460   147.1520   128.0180 cf         1 7OT      -0.169000
     18 C16        124.2750   147.3160   128.7650 ce         1 7OT      -0.176000
     19 C17        124.3570   147.7000   130.1900 ce         1 7OT      -0.063200
     20 C18        123.0770   147.5950   131.0170 c3         1 7OT      -0.054900
     21 C19        125.5580   148.0680   130.7270 cf         1 7OT      -0.176000
     22 C20        125.8280   148.4750   132.1040 cf         1 7OT      -0.173000
     23 C21        127.0650   148.7720   132.5840 ce         1 7OT      -0.170000
     24 C22        127.3320   149.1970   133.9680 ce         1 7OT      -0.180000
     25 C23        128.5480   149.4540   134.5360 cf         1 7OT      -0.058200
     26 C24        129.8630   149.2610   133.7840 c3         1 7OT      -0.056900
     27 C25        128.6240   149.8710   135.9400 cf         1 7OT      -0.182000
     28 C26        129.7050   150.3890   136.5910 ce         1 7OT      -0.164000
     29 C27        129.6910   150.7940   138.0050 ce         1 7OT      -0.193000
     30 C28        130.7490   151.2790   138.6970 c2         1 7OT      -0.093400
     31 C29        132.1460   151.4760   138.1250 c3         1 7OT      -0.056900
     32 C30        130.6350   151.7030   140.1540 c3         1 7OT      -0.042200
     33 C31        131.0400   150.5810   141.1330 c3         1 7OT      -0.035200
     34 C32        130.8890   151.0010   142.5840 c2         1 7OT      -0.229200
     35 C33        129.7810   150.9140   143.3530 c2         1 7OT      -0.106400
     36 C34        128.4370   150.3870   142.8640 c3         1 7OT      -0.057900
     37 C35        129.7010   151.3330   144.8220 c3         1 7OT      -0.039200
     38 C36        130.9970   151.8990   145.4480 c3         1 7OT      -0.036200
     39 C37        130.8090   152.2800   146.9060 c2         1 7OT      -0.224200
     40 C38        130.3860   153.4600   147.3980 c2         1 7OT      -0.111400
     41 C39        129.9720   154.6650   146.5660 c3         1 7OT      -0.055900
     42 C40        130.2670   153.7220   148.8880 c3         1 7OT      -0.055900
     43 HM11       118.7460   148.3630   115.1860 h1         1 7OT       0.026033
     44 HM12       120.4090   148.8430   115.5510 h1         1 7OT       0.026033
     45 HM13       120.0600   147.8050   114.1430 h1         1 7OT       0.026033
     46 H21A       122.5980   145.1120   114.8620 hc         1 7OT       0.041533
     47 H22A       120.9250   145.1390   114.2710 hc         1 7OT       0.041533
     48 H14        121.9620   146.5760   114.1070 hc         1 7OT       0.041533
     49 H21        121.7840   147.7350   117.6550 hc         1 7OT       0.041533
     50 H32A       123.1420   146.7500   117.0780 hc         1 7OT       0.041533
     51 H241       122.4880   148.0300   116.0500 hc         1 7OT       0.041533
     52 H293       120.3180   144.3080   116.6350 hc         1 7OT       0.053200
     53 H301       121.9660   144.4660   117.1980 hc         1 7OT       0.053200
     54 H5         119.4720   145.7520   118.4730 ha         1 7OT       0.183000
     55 H6         122.2380   144.9490   119.5880 ha         1 7OT       0.165000
     56 H81        118.8930   145.5760   122.1810 hc         1 7OT       0.043033
     57 H82        118.9120   146.8740   120.9770 hc         1 7OT       0.043033
     58 H83        118.6470   145.1880   120.5010 hc         1 7OT       0.043033
     59 H9         122.6700   145.6120   121.7820 ha         1 7OT       0.167000
     60 H10        120.3040   146.4180   123.6460 ha         1 7OT       0.174000
     61 H11        123.2980   145.9370   124.1030 ha         1 7OT       0.169000
     62 H131       120.5730   146.2980   127.3830 hc         1 7OT       0.042367
     63 H132       120.1870   147.5600   126.2020 hc         1 7OT       0.042367
     64 H133       119.9990   145.8430   125.8010 hc         1 7OT       0.042367
     65 H1         124.1400   146.7100   126.1430 ha         1 7OT       0.168000
     66 H15        122.1780   147.3270   128.4860 ha         1 7OT       0.175000
     67 H16        125.2320   147.1670   128.2620 ha         1 7OT       0.169000
     68 H181       123.2780   147.3630   132.0680 hc         1 7OT       0.042367
     69 H182       122.5080   148.5320   130.9830 hc         1 7OT       0.042367
     70 H183       122.4230   146.7910   130.6610 hc         1 7OT       0.042367
     71 H19        126.4220   148.0780   130.0580 ha         1 7OT       0.168000
     72 H20        124.9830   148.5570   132.7900 ha         1 7OT       0.172000
     73 H2         127.9100   148.7020   131.8990 ha         1 7OT       0.171000
     74 H22        126.4470   149.3300   134.5920 ha         1 7OT       0.169000
     75 H3         130.1740   150.1870   133.2880 hc         1 7OT       0.042033
     76 H242       130.6750   148.9470   134.4500 hc         1 7OT       0.042033
     77 H243       129.7950   148.4780   133.0220 hc         1 7OT       0.042033
     78 H25        127.7020   149.7680   136.5160 ha         1 7OT       0.170000
     79 H26        130.6340   150.5360   136.0420 ha         1 7OT       0.172000
     80 H27        128.7320   150.6910   138.5160 ha         1 7OT       0.169000
     81 H291       132.9130   151.5010   138.9080 hc         1 7OT       0.041033
     82 H292       132.4230   150.6630   137.4440 hc         1 7OT       0.041033
     83 H4         132.2110   152.4180   137.5690 hc         1 7OT       0.041033
     84 H7         131.2480   152.5930   140.3470 hc         1 7OT       0.047200
     85 H302       129.6030   152.0010   140.3750 hc         1 7OT       0.047200
     86 H311       130.4430   149.6860   140.9200 hc         1 7OT       0.045700
     87 H312       132.0810   150.2920   140.9410 hc         1 7OT       0.045700
     88 H32        131.8190   151.3930   142.9950 ha         1 7OT       0.168000
     89 H341       127.6470   151.1330   143.0140 hc         1 7OT       0.039700
     90 H342       128.4340   150.1350   141.7990 hc         1 7OT       0.039700
     91 H343       128.1480   149.4840   143.4140 hc         1 7OT       0.039700
     92 H351       128.9150   152.0890   144.9390 hc         1 7OT       0.046700
     93 H352       129.3850   150.4730   145.4250 hc         1 7OT       0.046700
     94 H361       131.7950   151.1500   145.3690 hc         1 7OT       0.045200
     95 H362       131.3340   152.7660   144.8660 hc         1 7OT       0.045200
     96 H37        131.0780   151.4760   147.5950 ha         1 7OT       0.165000
     97 H391       130.6330   155.5190   146.7580 hc         1 7OT       0.038700
     98 H392       129.9960   154.4690   145.4890 hc         1 7OT       0.038700
     99 H393       128.9490   154.9760   146.8100 hc         1 7OT       0.038700
    100 H401       130.9030   154.5620   149.1930 hc         1 7OT       0.038700
    101 H402       129.2340   153.9660   149.1660 hc         1 7OT       0.038700
    102 H403       130.5690   152.8500   149.4810 hc         1 7OT       0.038700
@<TRIPOS>BOND
     1     1     2 1   
     2     1    43 1   
     3     1    44 1   
     4     1    45 1   
     5     2     3 1   
     6     3     4 1   
     7     3     5 1   
     8     3     6 1   
     9     4    46 1   
    10     4    47 1   
    11     4    48 1   
    12     5    49 1   
    13     5    50 1   
    14     5    51 1   
    15     6     7 1   
    16     6    52 1   
    17     6    53 1   
    18     7     8 2   
    19     7    54 1   
    20     8     9 1   
    21     8    55 1   
    22     9    10 1   
    23     9    11 2   
    24    10    56 1   
    25    10    57 1   
    26    10    58 1   
    27    11    12 1   
    28    11    59 1   
    29    12    13 2   
    30    12    60 1   
    31    13    14 1   
    32    13    61 1   
    33    14    15 1   
    34    14    16 2   
    35    15    62 1   
    36    15    63 1   
    37    15    64 1   
    38    16    17 1   
    39    16    65 1   
    40    17    18 2   
    41    17    66 1   
    42    18    19 1   
    43    18    67 1   
    44    19    20 1   
    45    19    21 2   
    46    20    68 1   
    47    20    69 1   
    48    20    70 1   
    49    21    22 1   
    50    21    71 1   
    51    22    23 2   
    52    22    72 1   
    53    23    24 1   
    54    23    73 1   
    55    24    25 2   
    56    24    74 1   
    57    25    26 1   
    58    25    27 1   
    59    26    75 1   
    60    26    76 1   
    61    26    77 1   
    62    27    28 2   
    63    27    78 1   
    64    28    29 1   
    65    28    79 1   
    66    29    30 2   
    67    29    80 1   
    68    30    31 1   
    69    30    32 1   
    70    31    81 1   
    71    31    82 1   
    72    31    83 1   
    73    32    33 1   
    74    32    84 1   
    75    32    85 1   
    76    33    34 1   
    77    33    86 1   
    78    33    87 1   
    79    34    35 2   
    80    34    88 1   
    81    35    36 1   
    82    35    37 1   
    83    36    89 1   
    84    36    90 1   
    85    36    91 1   
    86    37    38 1   
    87    37    92 1   
    88    37    93 1   
    89    38    39 1   
    90    38    94 1   
    91    38    95 1   
    92    39    40 2   
    93    39    96 1   
    94    40    41 1   
    95    40    42 1   
    96    41    97 1   
    97    41    98 1   
    98    41    99 1   
    99    42   100 1   
   100    42   101 1   
   101    42   102 1   
@<TRIPOS>SUBSTRUCTURE
     1 7OT         1 TEMP              0 ****  ****    0 ROOT
