@<TRIPOS>MOLECULE
7OT
  102   101     1     0     0
SMALL
bcc


@<TRIPOS>ATOM
      1 CM1        119.6790   148.4300   115.6780 c3         1 7OT       0.128700
      2 O1         120.2170   147.2760   116.2710 os         1 7OT      -0.415600
      3 C1         121.6080   147.2850   116.5710 c3         1 7OT       0.166800
      4 C2         122.4440   147.2390   115.2920 c3         1 7OT      -0.117100
      5 C3         122.0050   148.4940   117.4150 c3         1 7OT      -0.117100
      6 C4         121.8460   145.9830   117.3560 c3         1 7OT      -0.036200
      7 C5         121.0950   145.8950   118.6440 c2         1 7OT      -0.137200
      8 C6         121.6900   145.8220   119.8400 ce         1 7OT      -0.150000
      9 C7         121.0230   145.7560   121.1320 ce         1 7OT      -0.053200
     10 C8         119.5260   145.7330   121.1550 c3         1 7OT      -0.055900
     11 C9         121.7980   145.7420   122.2430 cf         1 7OT      -0.139000
     12 C10        121.3720   145.7320   123.6170 cf         1 7OT      -0.115000
     13 C11        122.2580   145.8100   124.6340 ce         1 7OT      -0.131000
     14 C12        121.9440   145.8820   126.0420 ce         1 7OT      -0.060200
     15 C13        120.5080   145.7960   126.4610 c3         1 7OT      -0.054900
     16 C14        122.9760   146.0670   126.9070 cf         1 7OT      -0.131000
     17 C15        122.9110   146.2620   128.3260 cf         1 7OT      -0.119000
     18 C16        124.0200   146.5300   129.0560 ce         1 7OT      -0.126000
     19 C17        124.0630   146.8340   130.4650 ce         1 7OT      -0.063200
     20 C18        122.7820   146.8090   131.2430 c3         1 7OT      -0.054900
     21 C19        125.2690   147.1620   131.0010 cf         1 7OT      -0.126000
     22 C20        125.5490   147.5810   132.3410 cf         1 7OT      -0.123000
     23 C21        126.7950   147.9280   132.7470 ce         1 7OT      -0.120000
     24 C22        127.0910   148.4170   134.0600 ce         1 7OT      -0.130000
     25 C23        128.3040   148.7980   134.5380 cf         1 7OT      -0.058200
     26 C24        129.5740   148.7160   133.7440 c3         1 7OT      -0.056900
     27 C25        128.3750   149.3250   135.8830 cf         1 7OT      -0.132000
     28 C26        129.4940   149.7630   136.4980 ce         1 7OT      -0.114000
     29 C27        129.4890   150.3160   137.8320 ce         1 7OT      -0.143000
     30 C28        130.5460   150.7860   138.5200 c2         1 7OT      -0.093400
     31 C29        131.9540   150.8110   138.0110 c3         1 7OT      -0.056900
     32 C30        130.3530   151.3250   139.9090 c3         1 7OT      -0.042200
     33 C31        130.8410   150.3630   141.0070 c3         1 7OT      -0.035200
     34 C32        130.7540   151.0020   142.3600 c2         1 7OT      -0.179200
     35 C33        129.7680   150.8740   143.2520 c2         1 7OT      -0.106400
     36 C34        128.5600   150.0080   143.0450 c3         1 7OT      -0.057900
     37 C35        129.7520   151.6160   144.5640 c3         1 7OT      -0.039200
     38 C36        130.9420   152.5240   144.8640 c3         1 7OT      -0.036200
     39 C37        130.8120   153.1780   146.2060 c2         1 7OT      -0.174200
     40 C38        130.5040   154.4510   146.4670 c2         1 7OT      -0.111400
     41 C39        130.2310   155.4950   145.4240 c3         1 7OT      -0.055900
     42 C40        130.3980   154.9470   147.8800 c3         1 7OT      -0.055900
     43 HM11       118.6440   148.2050   115.4210 h1         1 7OT       0.026033
     44 HM12       119.6760   149.2930   116.3510 h1         1 7OT       0.026033
     45 HM13       120.1930   148.7230   114.7570 h1         1 7OT       0.026033
     46 H21A       123.5050   147.1700   115.5360 hc         1 7OT       0.041533
     47 H22A       122.1830   146.3700   114.6850 hc         1 7OT       0.041533
     48 H14        122.3140   148.1320   114.6790 hc         1 7OT       0.041533
     49 H21        121.3560   148.6080   118.2840 hc         1 7OT       0.041533
     50 H32A       123.0270   148.3740   117.7780 hc         1 7OT       0.041533
     51 H241       121.9750   149.4210   116.8410 hc         1 7OT       0.041533
     52 H293       121.5620   145.1450   116.7080 hc         1 7OT       0.053200
     53 H301       122.9180   145.8840   117.5430 hc         1 7OT       0.053200
     54 H5         120.0120   145.8950   118.5760 ha         1 7OT       0.133000
     55 H6         122.7780   145.8270   119.8730 ha         1 7OT       0.115000
     56 H81        119.1170   145.6800   122.1610 hc         1 7OT       0.043033
     57 H82        119.1160   146.6260   120.6780 hc         1 7OT       0.043033
     58 H83        119.1430   144.8770   120.5960 hc         1 7OT       0.043033
     59 H9         122.8750   145.7680   122.0950 ha         1 7OT       0.117000
     60 H10        120.3100   145.6900   123.8320 ha         1 7OT       0.124000
     61 H11        123.3150   145.8580   124.3800 ha         1 7OT       0.119000
     62 H131       120.3800   145.8290   127.5400 hc         1 7OT       0.042367
     63 H132       119.9250   146.6150   126.0350 hc         1 7OT       0.042367
     64 H133       120.0540   144.8680   126.1050 hc         1 7OT       0.042367
     65 H1         123.9740   146.1150   126.4780 ha         1 7OT       0.118000
     66 H15        121.9440   146.2300   128.8140 ha         1 7OT       0.125000
     67 H16        124.9740   146.5580   128.5350 ha         1 7OT       0.119000
     68 H181       122.9180   147.0580   132.2920 hc         1 7OT       0.042367
     69 H182       122.0600   147.5150   130.8270 hc         1 7OT       0.042367
     70 H183       122.3190   145.8220   131.1970 hc         1 7OT       0.042367
     71 H19        126.1280   147.1360   130.3340 ha         1 7OT       0.118000
     72 H20        124.7350   147.6530   133.0540 ha         1 7OT       0.122000
     73 H2         127.6020   147.8480   132.0250 ha         1 7OT       0.121000
     74 H22        126.2400   148.5080   134.7310 ha         1 7OT       0.119000
     75 H3         130.0420   149.6980   133.6530 hc         1 7OT       0.042033
     76 H242       130.2990   148.0680   134.2420 hc         1 7OT       0.042033
     77 H243       129.4280   148.3280   132.7400 hc         1 7OT       0.042033
     78 H25        127.4340   149.3810   136.4270 ha         1 7OT       0.120000
     79 H26        130.4390   149.7110   135.9710 ha         1 7OT       0.122000
     80 H27        128.5170   150.3620   138.3170 ha         1 7OT       0.119000
     81 H291       132.3390   151.8340   138.0200 hc         1 7OT       0.041033
     82 H292       132.6130   150.2300   138.6610 hc         1 7OT       0.041033
     83 H4         132.0670   150.4230   137.0020 hc         1 7OT       0.041033
     84 H7         130.8900   152.2750   140.0090 hc         1 7OT       0.047200
     85 H302       129.2970   151.5400   140.0860 hc         1 7OT       0.047200
     86 H311       130.2550   149.4440   140.9530 hc         1 7OT       0.045700
     87 H312       131.8790   150.0790   140.8140 hc         1 7OT       0.045700
     88 H32        131.5740   151.6750   142.5910 ha         1 7OT       0.118000
     89 H341       127.6500   150.6130   143.0540 hc         1 7OT       0.039700
     90 H342       128.5760   149.4560   142.1080 hc         1 7OT       0.039700
     91 H343       128.4570   149.2840   143.8570 hc         1 7OT       0.039700
     92 H351       128.8330   152.2140   144.6060 hc         1 7OT       0.046700
     93 H352       129.6440   150.8840   145.3730 hc         1 7OT       0.046700
     94 H361       131.8610   151.9300   144.8470 hc         1 7OT       0.045200
     95 H362       131.0470   153.2690   144.0720 hc         1 7OT       0.045200
     96 H37        130.9680   152.5160   147.0550 ha         1 7OT       0.115000
     97 H391       130.9140   156.3410   145.5380 hc         1 7OT       0.038700
     98 H392       130.3200   155.1280   144.4040 hc         1 7OT       0.038700
     99 H393       129.2220   155.8970   145.5450 hc         1 7OT       0.038700
    100 H401       131.1040   155.7600   148.0630 hc         1 7OT       0.038700
    101 H402       129.4020   155.3520   148.0800 hc         1 7OT       0.038700
    102 H403       130.5940   154.1590   148.6070 hc         1 7OT       0.038700
@<TRIPOS>BOND
     1     1     2 1   
     2     1    43 1   
     3     1    44 1   
     4     1    45 1   
     5     2     3 1   
     6     3     4 1   
     7     3     5 1   
     8     3     6 1   
     9     4    46 1   
    10     4    47 1   
    11     4    48 1   
    12     5    49 1   
    13     5    50 1   
    14     5    51 1   
    15     6     7 1   
    16     6    52 1   
    17     6    53 1   
    18     7     8 2   
    19     7    54 1   
    20     8     9 1   
    21     8    55 1   
    22     9    10 1   
    23     9    11 2   
    24    10    56 1   
    25    10    57 1   
    26    10    58 1   
    27    11    12 1   
    28    11    59 1   
    29    12    13 2   
    30    12    60 1   
    31    13    14 1   
    32    13    61 1   
    33    14    15 1   
    34    14    16 2   
    35    15    62 1   
    36    15    63 1   
    37    15    64 1   
    38    16    17 1   
    39    16    65 1   
    40    17    18 2   
    41    17    66 1   
    42    18    19 1   
    43    18    67 1   
    44    19    20 1   
    45    19    21 2   
    46    20    68 1   
    47    20    69 1   
    48    20    70 1   
    49    21    22 1   
    50    21    71 1   
    51    22    23 2   
    52    22    72 1   
    53    23    24 1   
    54    23    73 1   
    55    24    25 2   
    56    24    74 1   
    57    25    26 1   
    58    25    27 1   
    59    26    75 1   
    60    26    76 1   
    61    26    77 1   
    62    27    28 2   
    63    27    78 1   
    64    28    29 1   
    65    28    79 1   
    66    29    30 2   
    67    29    80 1   
    68    30    31 1   
    69    30    32 1   
    70    31    81 1   
    71    31    82 1   
    72    31    83 1   
    73    32    33 1   
    74    32    84 1   
    75    32    85 1   
    76    33    34 1   
    77    33    86 1   
    78    33    87 1   
    79    34    35 2   
    80    34    88 1   
    81    35    36 1   
    82    35    37 1   
    83    36    89 1   
    84    36    90 1   
    85    36    91 1   
    86    37    38 1   
    87    37    92 1   
    88    37    93 1   
    89    38    39 1   
    90    38    94 1   
    91    38    95 1   
    92    39    40 2   
    93    39    96 1   
    94    40    41 1   
    95    40    42 1   
    96    41    97 1   
    97    41    98 1   
    98    41    99 1   
    99    42   100 1   
   100    42   101 1   
   101    42   102 1   
@<TRIPOS>SUBSTRUCTURE
     1 7OT         1 TEMP              0 ****  ****    0 ROOT
