@<TRIPOS>MOLECULE
7OU
   40    42     1     0     0
SMALL
bcc


@<TRIPOS>ATOM
      1 O1          18.3370   -35.9530    37.4320 os         1 7OU      -0.307900
      2 O2          19.9860   -36.2000    35.9130 os         1 7OU      -0.408600
      3 O3          19.8360   -39.5610    41.2790 os         1 7OU      -0.340200
      4 O4          16.4730   -35.4920    35.3090 oh         1 7OU      -0.601800
      5 O5          17.6800   -34.7110    32.8630 oh         1 7OU      -0.578800
      6 O6          20.0440   -36.0620    32.2650 oh         1 7OU      -0.582800
      7 C1          18.6100   -36.3070    36.1100 c6         1 7OU       0.314900
      8 C2          17.8650   -35.3470    35.1920 c6         1 7OU       0.083100
      9 C3          18.6920   -36.8750    38.3750 ca         1 7OU       0.040100
     10 C4          18.2350   -35.6530    33.7430 c6         1 7OU       0.156100
     11 C5          19.7470   -35.6410    33.5730 c6         1 7OU       0.125100
     12 C6          20.3840   -36.5800    34.6090 c6         1 7OU       0.123100
     13 C7          18.3140   -38.9510    39.5450 ca         1 7OU      -0.196800
     14 C8          19.4390   -38.6900    40.3250 ca         1 7OU       0.221100
     15 C9          19.8230   -36.6230    39.1780 ca         1 7OU       0.204100
     16 C10         17.9530   -38.0170    38.5680 ca         1 7OU      -0.058000
     17 C11         20.1880   -37.5380    40.1570 ca         1 7OU      -0.266000
     18 C12         17.5940   -40.1590    39.8030 cc         1 7OU      -0.003200
     19 C13         19.1780   -40.7230    41.5590 c          1 7OU       0.748800
     20 C14         21.8960   -36.6020    34.5690 c3         1 7OU       0.143400
     21 C15         18.0040   -41.0090    40.7640 cd         1 7OU      -0.284200
     22 H1          16.1800   -35.0680    36.1220 ho         1 7OU       0.425000
     23 H3          20.9090   -35.7210    32.0180 ho         1 7OU       0.412000
     24 H4          21.2330   -35.4070    39.5730 ho         1 7OU       0.433000
     25 H5          23.3520   -35.3270    34.6510 ho         1 7OU       0.406000
     26 H6          18.2760   -37.3430    35.9140 h2         1 7OU       0.033700
     27 H7          18.1890   -34.3230    35.4280 h1         1 7OU       0.074700
     28 H8          17.8740   -36.6700    33.5110 h1         1 7OU       0.048700
     29 H9          20.1030   -34.6180    33.7540 h1         1 7OU       0.075700
     30 H10         20.0440   -37.6070    34.3960 h1         1 7OU       0.047700
     31 H11         17.0760   -38.1970    37.9570 ha         1 7OU       0.149000
     32 H12         21.0540   -37.3590    40.7850 ha         1 7OU       0.160000
     33 H13         16.7140   -40.3820    39.2130 ha         1 7OU       0.143000
     34 H14         22.2050   -37.0500    33.6160 h1         1 7OU       0.031700
     35 H15         22.2520   -37.2760    35.3590 h1         1 7OU       0.031700
     36 H16         17.4770   -41.9280    40.9780 ha         1 7OU       0.165000
     37 H2          16.7230   -34.7350    32.9670 ho         1 7OU       0.420000
     38 O7          20.4900   -35.4890    38.9630 oh         1 7OU      -0.447100
     39 O8          19.6280   -41.4100    42.4410 o          1 7OU      -0.554500
     40 O9          22.3950   -35.2960    34.7280 oh         1 7OU      -0.588800
@<TRIPOS>BOND
     1     1     7 1   
     2     1     9 1   
     3     2     7 1   
     4     2    12 1   
     5     3    14 1   
     6     3    19 1   
     7     4     8 1   
     8     4    22 1   
     9     5    10 1   
    10     5    37 1   
    11     6    11 1   
    12     6    23 1   
    13     7     8 1   
    14     7    26 1   
    15     8    10 1   
    16     8    27 1   
    17     9    15 ar  
    18     9    16 ar  
    19    10    11 1   
    20    10    28 1   
    21    11    12 1   
    22    11    29 1   
    23    12    20 1   
    24    12    30 1   
    25    13    14 ar  
    26    13    16 ar  
    27    13    18 1   
    28    14    17 ar  
    29    15    17 ar  
    30    15    38 1   
    31    16    31 1   
    32    17    32 1   
    33    18    21 2   
    34    18    33 1   
    35    19    21 1   
    36    19    39 2   
    37    20    34 1   
    38    20    35 1   
    39    20    40 1   
    40    21    36 1   
    41    24    38 1   
    42    25    40 1   
@<TRIPOS>SUBSTRUCTURE
     1 7OU         1 TEMP              0 ****  ****    0 ROOT
