@<TRIPOS>MOLECULE
7OU
   40    42     1     0     0
SMALL
No Charge or Current Charge


@<TRIPOS>ATOM
      1 O1          18.6510   -35.6920    37.5190 os         1 7OU      -0.331100
      2 O2          19.9640   -36.5750    35.7710 os         1 7OU      -0.455000
      3 O3          19.1670   -39.3130    41.7290 os         1 7OU      -0.340200
      4 O4          17.0450   -34.2350    35.5630 oh         1 7OU      -0.724000
      5 O5          18.0720   -34.1690    32.8890 oh         1 7OU      -0.641000
      6 O6          19.7190   -36.3960    32.0310 oh         1 7OU      -0.705000
      7 C1          18.6600   -36.0730    36.1290 c6         1 7OU       0.361300
      8 C2          18.3250   -34.8360    35.2350 c6         1 7OU       0.106300
      9 C3          18.7850   -36.6270    38.5380 ca         1 7OU       0.040100
     10 C4          18.3530   -35.2860    33.7480 c6         1 7OU       0.179300
     11 C5          19.7330   -35.9240    33.3950 c6         1 7OU       0.148300
     12 C6          20.0540   -37.0710    34.4080 c6         1 7OU       0.146300
     13 C7          18.9860   -38.9290    39.3560 ca         1 7OU      -0.196800
     14 C8          19.0420   -38.4470    40.6750 ca         1 7OU       0.221100
     15 C9          18.8390   -36.1640    39.8750 ca         1 7OU       0.204100
     16 C10         18.8560   -38.0190    38.2890 ca         1 7OU      -0.040000
     17 C11         18.9680   -37.0730    40.9350 ca         1 7OU      -0.248000
     18 C12         19.0610   -40.3610    39.0910 cc         1 7OU      -0.053200
     19 C13         19.2450   -40.6690    41.5810 c          1 7OU       0.673300
     20 C14         21.4840   -37.6780    34.2050 c3         1 7OU       0.166600
     21 C15         19.1870   -41.1750    40.1960 cd         1 7OU      -0.334200
     22 H1          17.0420   -34.0900    36.5400 ho         1 7OU       0.524000
     23 H3          19.2740   -35.6820    31.5140 ho         1 7OU       0.511000
     24 H4          18.8240   -34.7080    41.1220 ho         1 7OU       0.472000
     25 H5          23.3990   -37.2540    34.3970 ho         1 7OU       0.505000
     26 H6          17.9010   -36.8520    35.9620 h2         1 7OU       0.033700
     27 H7          19.1300   -34.0990    35.3840 h1         1 7OU       0.074700
     28 H8          17.5770   -36.0550    33.6150 h1         1 7OU       0.048700
     29 H9          20.5040   -35.1470    33.5120 h1         1 7OU       0.075700
     30 H10         19.3210   -37.8810    34.2820 h1         1 7OU       0.047700
     31 H11         18.8130   -38.4100    37.2760 ha         1 7OU       0.131000
     32 H12         19.0110   -36.7260    41.9630 ha         1 7OU       0.142000
     33 H13         19.0220   -40.7780    38.0850 ha         1 7OU       0.193000
     34 H14         21.5610   -38.0480    33.1740 h1         1 7OU       0.031700
     35 H15         21.5690   -38.5520    34.8650 h1         1 7OU       0.031700
     36 H16         19.2510   -42.2530    40.1110 ha         1 7OU       0.215000
     37 H2          17.3770   -33.6590    33.3680 ho         1 7OU       0.459000
     38 O7          18.7650   -34.8270    40.1520 oh         1 7OU      -0.486100
     39 O8          19.3570   -41.4150    42.5410 o          1 7OU      -0.479000
     40 O9          22.5550   -36.7510    34.4830 oh         1 7OU      -0.711000
@<TRIPOS>BOND
     1     1     7 1   
     2     1     9 1   
     3     2     7 1   
     4     2    12 1   
     5     3    14 1   
     6     3    19 1   
     7     4     8 1   
     8     4    22 1   
     9     5    10 1   
    10     5    37 1   
    11     6    11 1   
    12     6    23 1   
    13     7     8 1   
    14     7    26 1   
    15     8    10 1   
    16     8    27 1   
    17     9    15 ar  
    18     9    16 ar  
    19    10    11 1   
    20    10    28 1   
    21    11    12 1   
    22    11    29 1   
    23    12    20 1   
    24    12    30 1   
    25    13    14 ar  
    26    13    16 ar  
    27    13    18 1   
    28    14    17 ar  
    29    15    17 ar  
    30    15    38 1   
    31    16    31 1   
    32    17    32 1   
    33    18    21 2   
    34    18    33 1   
    35    19    21 1   
    36    19    39 2   
    37    20    34 1   
    38    20    35 1   
    39    20    40 1   
    40    21    36 1   
    41    24    38 1   
    42    25    40 1   
@<TRIPOS>SUBSTRUCTURE
     1 7OU         1 TEMP              0 ****  ****    0 ROOT
