@<TRIPOS>MOLECULE
7OV
   43    46     1     0     0
SMALL
No Charge or Current Charge


@<TRIPOS>ATOM
      1 N3          -7.1890     1.5450    -0.3690 nc         1 7OV      -0.633000
      2 C4          -6.7360     0.2950    -0.6820 cc         1 7OV       0.413500
      3 C6          -4.4910     0.5400     0.1820 cc         1 7OV       0.005700
      4 C8          -6.5510    -1.7170    -1.3730 cd         1 7OV       0.545200
      5 C10         -3.0750     0.0800     0.4980 c6         1 7OV      -0.044400
      6 C13         -1.6170    -1.5410     1.8180 c6         1 7OV       0.155000
      7 C20          1.5910    -0.4110    -0.6720 ca         1 7OV      -0.170600
      8 C22          1.8810    -1.7340    -1.0790 ca         1 7OV      -0.042000
      9 C24          4.2520    -1.3570    -0.6760 ca         1 7OV       0.221000
     10 C26          2.6560     0.4400    -0.3010 ca         1 7OV      -0.002000
     11 C23          3.2060    -2.2050    -1.0720 ca         1 7OV      -0.164000
     12 C25          3.9800    -0.0300    -0.2950 ca         1 7OV       0.128000
     13 C1          -4.9320     1.8200     0.5100 cd         1 7OV      -0.215000
     14 C2          -6.2680     2.2910     0.2280 cd         1 7OV       0.414300
     15 C12         -3.0620    -1.0670     1.5460 c6         1 7OV      -0.126400
     16 C16         -2.2990    -0.3350    -0.7830 c6         1 7OV       0.085000
     17 C14         -0.8280    -1.8620     0.5220 c6         1 7OV       0.044000
     18 C11         -6.7060     3.6800     0.5960 c3         1 7OV      -0.155400
     19 N7          -7.4330    -0.6450    -1.2730 nd         1 7OV      -0.373300
     20 N9          -5.3340    -1.4940    -0.8710 nc         1 7OV      -0.617100
     21 N5          -5.4890    -0.2210    -0.4470 na         1 7OV       0.081900
     22 N15         -0.8990    -0.7450    -0.4730 n          1 7OV      -0.390800
     23 O21         -0.0140     1.3130    -0.9790 o          1 7OV      -0.569100
     24 F28          5.5220    -1.8220    -0.6770 f          1 7OV      -0.155000
     25 F17         -0.9280    -0.5530     2.5460 f          1 7OV      -0.114000
     26 F18         -1.6490    -2.6830     2.6370 f          1 7OV      -0.114000
     27 I27          5.5850     1.3110     0.3040 i          1 7OV      -0.263000
     28 H1          -6.8540    -2.6530    -1.8270 h5         1 7OV       0.075800
     29 H2          -2.5230     0.9260     0.9330 hc         1 7OV       0.086700
     30 H3           1.0870    -2.3970    -1.4180 ha         1 7OV       0.129000
     31 H4           2.4600     1.4690    -0.0070 ha         1 7OV       0.145000
     32 H5           3.4260    -3.2230    -1.3820 ha         1 7OV       0.141000
     33 H6          -4.2470     2.5020     1.0010 ha         1 7OV       0.148000
     34 H7          -3.5320    -0.7330     2.4820 hc         1 7OV       0.087200
     35 H8          -3.6550    -1.9180     1.1880 hc         1 7OV       0.087200
     36 H9          -2.8040    -1.1780    -1.2730 h1         1 7OV       0.084700
     37 H10         -2.3070     0.4960    -1.5030 h1         1 7OV       0.084700
     38 H11          0.2100    -2.0800     0.8060 h1         1 7OV       0.087200
     39 H12         -1.2390    -2.7740     0.0650 h1         1 7OV       0.087200
     40 H13         -6.8860     4.2820    -0.3020 hc         1 7OV       0.065033
     41 H14         -7.6320     3.6590     1.1820 hc         1 7OV       0.065033
     42 H15         -5.9460     4.1940     1.1960 hc         1 7OV       0.065033
     43 C19          0.1830     0.1390    -0.6920 c          1 7OV       0.618700
@<TRIPOS>BOND
     1     1     2 1   
     2     1    14 2   
     3     2    19 2   
     4     2    21 1   
     5     3     5 1   
     6     3    13 2   
     7     3    21 1   
     8     4    19 1   
     9     4    20 2   
    10     4    28 1   
    11     5    15 1   
    12     5    16 1   
    13     5    29 1   
    14     6    15 1   
    15     6    17 1   
    16     6    25 1   
    17     6    26 1   
    18     7     8 ar  
    19     7    10 ar  
    20     7    43 1   
    21     8    11 ar  
    22     8    30 1   
    23     9    11 ar  
    24     9    12 ar  
    25     9    24 1   
    26    10    12 ar  
    27    10    31 1   
    28    11    32 1   
    29    12    27 1   
    30    13    14 1   
    31    13    33 1   
    32    14    18 1   
    33    15    34 1   
    34    15    35 1   
    35    16    22 1   
    36    16    36 1   
    37    16    37 1   
    38    17    22 1   
    39    17    38 1   
    40    17    39 1   
    41    18    40 1   
    42    18    41 1   
    43    18    42 1   
    44    20    21 1   
    45    22    43 1   
    46    23    43 2   
@<TRIPOS>SUBSTRUCTURE
     1 7OV         1 TEMP              0 ****  ****    0 ROOT
