@<TRIPOS>MOLECULE
7OV
   43    46     1     0     0
SMALL
abcg2


@<TRIPOS>ATOM
      1 N3          -7.0470     1.4510    -0.1980 nc         1 7OV      -0.633000
      2 C4          -6.6710     0.1920    -0.4160 cc         1 7OV       0.413500
      3 C6          -4.3900     0.5980     0.1820 cc         1 7OV       0.005700
      4 C8          -6.5220    -1.8380    -0.8680 cd         1 7OV       0.545200
      5 C10         -2.9910     0.1060     0.3750 c6         1 7OV      -0.044400
      6 C13         -1.4820    -1.4690     1.5910 c6         1 7OV       0.155000
      7 C20          1.4100    -0.4510    -0.6960 ca         1 7OV      -0.170600
      8 C22          1.8520    -1.6040    -1.3360 ca         1 7OV      -0.042000
      9 C24          4.0470    -1.2310    -0.4830 ca         1 7OV       0.221000
     10 C26          2.3030     0.3200     0.0390 ca         1 7OV      -0.002000
     11 C23          3.1770    -1.9960    -1.2360 ca         1 7OV      -0.164000
     12 C25          3.6250    -0.0780     0.1590 ca         1 7OV       0.128000
     13 C1          -4.7730     1.8880     0.4000 cd         1 7OV      -0.215000
     14 C2          -6.1200     2.2880     0.2030 cd         1 7OV       0.414300
     15 C12         -2.8990    -0.9560     1.4820 c6         1 7OV      -0.126400
     16 C16         -2.3650    -0.4180    -0.9290 c6         1 7OV       0.085000
     17 C14         -0.9110    -1.9370     0.2610 c6         1 7OV       0.044000
     18 C11         -6.5060     3.7060     0.4650 c3         1 7OV      -0.155400
     19 N7          -7.4050    -0.8300    -0.8210 nd         1 7OV      -0.373300
     20 N9          -5.2860    -1.5430    -0.5250 nc         1 7OV      -0.617100
     21 N5          -5.3780    -0.2370    -0.2330 na         1 7OV       0.081900
     22 N15         -0.9980    -0.8410    -0.6840 n          1 7OV      -0.390800
     23 O21         -0.1790     1.2010    -1.2260 o          1 7OV      -0.569100
     24 F28          5.3190    -1.6150    -0.3810 f          1 7OV      -0.155000
     25 F17         -0.6660    -0.4810     2.0790 f          1 7OV      -0.114000
     26 F18         -1.4180    -2.4880     2.4930 f          1 7OV      -0.114000
     27 I27          4.9830     1.0430     1.2870 i          1 7OV      -0.263000
     28 H1          -6.7880    -2.8410    -1.1670 h5         1 7OV       0.075800
     29 H2          -2.4190     0.9840     0.6860 hc         1 7OV       0.086700
     30 H3           1.1700    -2.1990    -1.9300 ha         1 7OV       0.129000
     31 H4           1.9630     1.2250     0.5240 ha         1 7OV       0.145000
     32 H5           3.5360    -2.8850    -1.7360 ha         1 7OV       0.141000
     33 H6          -4.0380     2.6100     0.7270 ha         1 7OV       0.148000
     34 H7          -3.2180    -0.5400     2.4400 hc         1 7OV       0.087200
     35 H8          -3.5470    -1.8020     1.2510 hc         1 7OV       0.087200
     36 H9          -2.9210    -1.2820    -1.2970 h1         1 7OV       0.084700
     37 H10         -2.3840     0.3460    -1.7020 h1         1 7OV       0.084700
     38 H11          0.1140    -2.2750     0.4000 h1         1 7OV       0.087200
     39 H12         -1.4910    -2.7840    -0.1090 h1         1 7OV       0.087200
     40 H13         -5.8920     4.3870    -0.1260 hc         1 7OV       0.065033
     41 H14         -7.5530     3.8740     0.2240 hc         1 7OV       0.065033
     42 H15         -6.3420     3.9560     1.5140 hc         1 7OV       0.065033
     43 C19          0.0130     0.0510    -0.8720 c          1 7OV       0.618700
@<TRIPOS>BOND
     1     1     2 1   
     2     1    14 2   
     3     2    19 2   
     4     2    21 1   
     5     3     5 1   
     6     3    13 2   
     7     3    21 1   
     8     4    19 1   
     9     4    20 2   
    10     4    28 1   
    11     5    15 1   
    12     5    16 1   
    13     5    29 1   
    14     6    15 1   
    15     6    17 1   
    16     6    25 1   
    17     6    26 1   
    18     7     8 ar  
    19     7    10 ar  
    20     7    43 1   
    21     8    11 ar  
    22     8    30 1   
    23     9    11 ar  
    24     9    12 ar  
    25     9    24 1   
    26    10    12 ar  
    27    10    31 1   
    28    11    32 1   
    29    12    27 1   
    30    13    14 1   
    31    13    33 1   
    32    14    18 1   
    33    15    34 1   
    34    15    35 1   
    35    16    22 1   
    36    16    36 1   
    37    16    37 1   
    38    17    22 1   
    39    17    38 1   
    40    17    39 1   
    41    18    40 1   
    42    18    41 1   
    43    18    42 1   
    44    20    21 1   
    45    22    43 1   
    46    23    43 2   
@<TRIPOS>SUBSTRUCTURE
     1 7OV         1 TEMP              0 ****  ****    0 ROOT
