@<TRIPOS>MOLECULE
7OW
   55    58     1     0     0
SMALL
abcg2


@<TRIPOS>ATOM
      1 C4          -5.7950    -7.2670    20.6970 cc         1 7OW      -0.131200
      2 C14         -0.4770    -1.9980    23.6540 c6         1 7OW      -0.105400
      3 C5          -5.0870    -5.9860    20.8970 ca         1 7OW      -0.005800
      4 C6          -5.0340    -5.0240    19.8620 ca         1 7OW      -0.133000
      5 C11         -2.2790    -0.2580    23.5490 c6         1 7OW      -0.105400
      6 C7          -4.4130    -3.7960    20.0260 ca         1 7OW      -0.046000
      7 C8          -3.8170    -3.5160    21.2550 ca         1 7OW       0.069400
      8 C9          -2.7890    -2.6480    22.9410 cc         1 7OW       0.424800
      9 C10         -1.9890    -1.7390    23.8160 c6         1 7OW      -0.074000
     10 C12         -1.3840     0.6130    24.4190 c6         1 7OW       0.152600
     11 C13          0.3150    -1.0250    24.5150 c6         1 7OW       0.152600
     12 N1          -3.1450    -2.3890    21.7010 nd         1 7OW      -0.565100
     13 N2          -3.1880    -3.9060    23.3470 na         1 7OW      -0.196600
     14 C3          -5.3790    -8.4650    21.3410 cc         1 7OW      -0.090000
     15 N3          -7.5710    -8.5240    19.7100 n          1 7OW      -0.268000
     16 C2          -6.0340    -9.6480    21.1750 cd         1 7OW      -0.204400
     17 O1          -0.0000     0.3320    24.2080 os         1 7OW      -0.452000
     18 C15         -2.9810    -4.5240    24.6450 c3         1 7OW       0.083600
     19 C16         -4.0800    -4.2210    25.6400 c3         1 7OW       0.156600
     20 O2          -5.2990    -4.8320    25.1350 os         1 7OW      -0.497000
     21 C17         -6.4110    -4.6390    25.8380 c3         1 7OW       0.500000
     22 F1          -6.7570    -3.3340    25.9450 f          1 7OW      -0.111667
     23 F2          -7.4160    -5.2780    25.2280 f          1 7OW      -0.111667
     24 F3          -6.3290    -5.1110    27.1040 f          1 7OW      -0.111667
     25 C18         -3.8550    -4.4830    22.2790 ca         1 7OW      -0.060200
     26 C19         -4.4820    -5.7120    22.1250 ca         1 7OW      -0.100000
     27 C20         -6.9000    -7.3560    19.8990 cd         1 7OW      -0.025400
     28 C21         -8.7480    -8.5030    18.8350 c3         1 7OW       0.066300
     29 C22         -7.1980    -9.7240    20.3170 c          1 7OW       0.548200
     30 O3          -7.8380   -10.7680    20.1130 o          1 7OW      -0.568000
     31 H1          -0.2270    -3.0220    23.9390 hc         1 7OW       0.064700
     32 H2          -0.2030    -1.8680    22.6040 hc         1 7OW       0.064700
     33 H3          -5.4790    -5.2600    18.9040 ha         1 7OW       0.111000
     34 H4          -2.0950    -0.0320    22.4970 hc         1 7OW       0.064700
     35 H5          -3.3260    -0.0300    23.7600 hc         1 7OW       0.064700
     36 H6          -4.3850    -3.0750    19.2180 ha         1 7OW       0.130000
     37 H7          -2.2490    -1.9430    24.8590 hc         1 7OW       0.041700
     38 H8          -1.5200     1.6690    24.1850 h1         1 7OW       0.045700
     39 H9          -1.6260     0.4610    25.4810 h1         1 7OW       0.045700
     40 H10          0.1100    -1.2150    25.5780 h1         1 7OW       0.045700
     41 H11          1.3860    -1.1370    24.3460 h1         1 7OW       0.045700
     42 H12         -4.5010    -8.4400    21.9750 ha         1 7OW       0.184000
     43 H13         -4.7180   -10.7390    22.4640 hc         1 7OW       0.046700
     44 H14         -6.3940   -11.3210    22.4700 hc         1 7OW       0.046700
     45 H15         -5.3570   -11.6840    21.1040 hc         1 7OW       0.046700
     46 H16         -2.8940    -5.6000    24.5020 h1         1 7OW       0.076200
     47 H17         -2.0390    -4.1760    25.0660 h1         1 7OW       0.076200
     48 H18         -3.8350    -4.6570    26.6080 h1         1 7OW       0.065200
     49 H19         -4.2390    -3.1480    25.7430 h1         1 7OW       0.065200
     50 H20         -4.5350    -6.4180    22.9410 ha         1 7OW       0.124000
     51 H21         -7.3170    -6.5010    19.3860 h4         1 7OW       0.203000
     52 H22         -9.1560    -9.5050    18.7850 h1         1 7OW       0.059700
     53 H23         -9.4940    -7.8200    19.2420 h1         1 7OW       0.059700
     54 H24         -8.4570    -8.1710    17.8400 h1         1 7OW       0.059700
     55 C1          -5.5960   -10.9150    21.8430 c3         1 7OW      -0.030900
@<TRIPOS>BOND
     1     1     3 1   
     2     1    14 1   
     3     1    27 2   
     4     2     9 1   
     5     2    11 1   
     6     2    31 1   
     7     2    32 1   
     8     3     4 ar  
     9     3    26 ar  
    10     4     6 ar  
    11     4    33 1   
    12     5     9 1   
    13     5    10 1   
    14     5    34 1   
    15     5    35 1   
    16     6     7 ar  
    17     6    36 1   
    18     7    12 1   
    19     7    25 ar  
    20     8     9 1   
    21     8    12 2   
    22     8    13 1   
    23     9    37 1   
    24    10    17 1   
    25    10    38 1   
    26    10    39 1   
    27    11    17 1   
    28    11    40 1   
    29    11    41 1   
    30    13    18 1   
    31    13    25 1   
    32    14    16 2   
    33    14    42 1   
    34    15    27 1   
    35    15    28 1   
    36    15    29 1   
    37    16    29 1   
    38    16    55 1   
    39    18    19 1   
    40    18    46 1   
    41    18    47 1   
    42    19    20 1   
    43    19    48 1   
    44    19    49 1   
    45    20    21 1   
    46    21    22 1   
    47    21    23 1   
    48    21    24 1   
    49    25    26 ar  
    50    26    50 1   
    51    27    51 1   
    52    28    52 1   
    53    28    53 1   
    54    28    54 1   
    55    29    30 2   
    56    43    55 1   
    57    44    55 1   
    58    45    55 1   
@<TRIPOS>SUBSTRUCTURE
     1 7OW         1 TEMP              0 ****  ****    0 ROOT
