@<TRIPOS>MOLECULE
7OW
   55    58     1     0     0
SMALL
No Charge or Current Charge


@<TRIPOS>ATOM
      1 C4          -5.7710    -7.3210    20.6850 cc         1 7OW      -0.131200
      2 C14         -0.4080    -1.8230    23.5230 c6         1 7OW      -0.105400
      3 C5          -5.0860    -6.0200    20.8670 ca         1 7OW      -0.005800
      4 C6          -5.0330    -5.0420    19.8290 ca         1 7OW      -0.133000
      5 C11         -2.3910    -0.2290    23.6640 c6         1 7OW      -0.105400
      6 C7          -4.3820    -3.8030    20.0180 ca         1 7OW      -0.046000
      7 C8          -3.7750    -3.5460    21.2510 ca         1 7OW       0.069400
      8 C9          -2.7210    -2.6480    22.9170 cc         1 7OW       0.424800
      9 C10         -1.9310    -1.7090    23.8160 c6         1 7OW      -0.074000
     10 C12         -1.4980     0.7080    24.5120 c6         1 7OW       0.152600
     11 C13          0.3900    -0.8040    24.3730 c6         1 7OW       0.152600
     12 N1          -3.0980    -2.3970    21.6440 nd         1 7OW      -0.565100
     13 N2          -3.1370    -3.9320    23.3000 na         1 7OW      -0.196600
     14 C3          -5.5620    -8.4700    21.5260 cc         1 7OW      -0.090000
     15 N3          -7.4990    -8.5560    19.4880 n          1 7OW      -0.268000
     16 C2          -6.2850    -9.6290    21.3330 cd         1 7OW      -0.204400
     17 O1          -0.1130     0.5310    24.1430 os         1 7OW      -0.452000
     18 C15         -2.8890    -4.6500    24.5700 c3         1 7OW       0.083600
     19 C16         -3.9470    -4.3720    25.6600 c3         1 7OW       0.156600
     20 O2          -5.2060    -4.9300    25.2280 os         1 7OW      -0.497000
     21 C17         -6.3220    -4.7200    26.1120 c3         1 7OW       0.500000
     22 F1          -6.5860    -3.4050    26.2880 f          1 7OW      -0.111667
     23 F2          -7.4420    -5.2880    25.6150 f          1 7OW      -0.111667
     24 F3          -6.1080    -5.2620    27.3330 f          1 7OW      -0.111667
     25 C18         -3.8060    -4.4790    22.2420 ca         1 7OW      -0.060200
     26 C19         -4.4470    -5.7190    22.0980 ca         1 7OW      -0.100000
     27 C20         -6.7570    -7.3950    19.7130 cd         1 7OW      -0.025400
     28 C21         -8.5250    -8.5840    18.4190 c3         1 7OW       0.066300
     29 C22         -7.3180    -9.7260    20.2620 c          1 7OW       0.548200
     30 O3          -7.9740   -10.7430    20.0610 o          1 7OW      -0.568000
     31 H1          -0.0540    -2.8410    23.7360 hc         1 7OW       0.064700
     32 H2          -0.2130    -1.6380    22.4580 hc         1 7OW       0.064700
     33 H3          -5.4670    -5.2320    18.8520 ha         1 7OW       0.111000
     34 H4          -2.3380     0.0850    22.6120 hc         1 7OW       0.064700
     35 H5          -3.4400    -0.1240    23.9720 hc         1 7OW       0.064700
     36 H6          -4.3470    -3.0650    19.2210 ha         1 7OW       0.130000
     37 H7          -2.0930    -1.9880    24.8660 hc         1 7OW       0.041700
     38 H8          -1.7830     1.7560    24.3410 h1         1 7OW       0.045700
     39 H9          -1.6220     0.4900    25.5830 h1         1 7OW       0.045700
     40 H10          0.3030    -1.0460    25.4430 h1         1 7OW       0.045700
     41 H11          1.4540    -0.8380    24.1000 h1         1 7OW       0.045700
     42 H12         -4.8080    -8.4360    22.3060 ha         1 7OW       0.184000
     43 H13         -5.3160   -10.7210    22.9440 hc         1 7OW       0.046700
     44 H14         -7.0130   -11.1500    22.6940 hc         1 7OW       0.046700
     45 H15         -5.7750   -11.7230    21.5610 hc         1 7OW       0.046700
     46 H16         -2.8410    -5.7280    24.3800 h1         1 7OW       0.076200
     47 H17         -1.9050    -4.3520    24.9530 h1         1 7OW       0.076200
     48 H18         -3.6190    -4.8350    26.6000 h1         1 7OW       0.065200
     49 H19         -4.0250    -3.2880    25.8210 h1         1 7OW       0.065200
     50 H20         -4.4740    -6.4080    22.9340 ha         1 7OW       0.124000
     51 H21         -7.0580    -6.5760    19.0710 h4         1 7OW       0.203000
     52 H22         -8.3030    -9.3960    17.7140 h1         1 7OW       0.059700
     53 H23         -9.5140    -8.7530    18.8610 h1         1 7OW       0.059700
     54 H24         -8.5430    -7.6360    17.8660 h1         1 7OW       0.059700
     55 C1          -6.0870   -10.8710    22.1770 c3         1 7OW      -0.030900
@<TRIPOS>BOND
     1     1     3 1   
     2     1    14 1   
     3     1    27 2   
     4     2     9 1   
     5     2    11 1   
     6     2    31 1   
     7     2    32 1   
     8     3     4 ar  
     9     3    26 ar  
    10     4     6 ar  
    11     4    33 1   
    12     5     9 1   
    13     5    10 1   
    14     5    34 1   
    15     5    35 1   
    16     6     7 ar  
    17     6    36 1   
    18     7    12 1   
    19     7    25 ar  
    20     8     9 1   
    21     8    12 2   
    22     8    13 1   
    23     9    37 1   
    24    10    17 1   
    25    10    38 1   
    26    10    39 1   
    27    11    17 1   
    28    11    40 1   
    29    11    41 1   
    30    13    18 1   
    31    13    25 1   
    32    14    16 2   
    33    14    42 1   
    34    15    27 1   
    35    15    28 1   
    36    15    29 1   
    37    16    29 1   
    38    16    55 1   
    39    18    19 1   
    40    18    46 1   
    41    18    47 1   
    42    19    20 1   
    43    19    48 1   
    44    19    49 1   
    45    20    21 1   
    46    21    22 1   
    47    21    23 1   
    48    21    24 1   
    49    25    26 ar  
    50    26    50 1   
    51    27    51 1   
    52    28    52 1   
    53    28    53 1   
    54    28    54 1   
    55    29    30 2   
    56    43    55 1   
    57    44    55 1   
    58    45    55 1   
@<TRIPOS>SUBSTRUCTURE
     1 7OW         1 TEMP              0 ****  ****    0 ROOT
