@<TRIPOS>MOLECULE
7OY
   43    46     1     0     0
SMALL
bcc


@<TRIPOS>ATOM
      1 N3          -5.9260     1.0670    -0.1520 nc         1 7OY      -0.635000
      2 C4          -5.4320    -0.1410    -0.4170 cc         1 7OY       0.414500
      3 C6          -3.1940     0.4660     0.1750 cc         1 7OY       0.057400
      4 C8          -5.0900    -2.1310    -0.9360 cd         1 7OY       0.546200
      5 C13         -0.0830    -1.3280     1.5220 c6         1 7OY       0.397600
      6 C20          3.4490     0.9500     0.0600 ca         1 7OY      -0.046000
      7 C21          4.8060     0.7130     0.1960 ca         1 7OY      -0.034600
      8 C22          4.6260    -1.2160    -1.2380 ca         1 7OY      -0.173000
      9 C23          3.2640    -0.9890    -1.3560 ca         1 7OY      -0.074000
     10 C18          2.6720     0.0880    -0.7050 ca         1 7OY      -0.158600
     11 C27          5.3820    -0.3660    -0.4570 ca         1 7OY       0.165900
     12 C1          -3.6990     1.7040     0.4430 cd         1 7OY      -0.298300
     13 C2          -5.0800     1.9780     0.2690 cd         1 7OY       0.480600
     14 C12         -1.5480    -0.9690     1.4230 c6         1 7OY      -0.126400
     15 C16         -1.0810    -0.3150    -0.9720 c6         1 7OY       0.085000
     16 C14          0.5340    -1.6920     0.1810 c6         1 7OY       0.044000
     17 C11         -1.7520     0.1090     0.3460 c6         1 7OY      -0.044400
     18 N7          -6.0660    -1.2170    -0.8480 nd         1 7OY      -0.374300
     19 N9          -3.8840    -1.7270    -0.5960 nc         1 7OY      -0.618100
     20 N5          -4.0990    -0.4460    -0.2620 na         1 7OY       0.031200
     21 N15          0.3260    -0.5880    -0.7340 n          1 7OY      -0.457800
     22 O19          0.9040     1.5450    -1.2340 o          1 7OY      -0.569100
     23 F28          6.6900    -0.5760    -0.3240 f          1 7OY      -0.119900
     24 F26          0.0890    -2.3610     2.3930 f          1 7OY      -0.235300
     25 H1          -5.2610    -3.1450    -1.2660 h5         1 7OY       0.075800
     26 H5           3.0040     1.8000     0.5600 ha         1 7OY       0.166000
     27 H6           5.1000    -2.0450    -1.7470 ha         1 7OY       0.159000
     28 H7           2.6700    -1.6520    -1.9710 ha         1 7OY       0.148000
     29 H8          -3.0360     2.4810     0.7960 ha         1 7OY       0.166000
     30 H9          -2.0970    -1.8740     1.1580 hc         1 7OY       0.086700
     31 H10         -1.9140    -0.6220     2.3900 hc         1 7OY       0.086700
     32 H11         -1.5360    -1.2270    -1.3590 h1         1 7OY       0.085200
     33 H12         -1.1860     0.4590    -1.7270 h1         1 7OY       0.085200
     34 H13          1.5900    -1.9220     0.3100 h1         1 7OY       0.087200
     35 H14          0.0470    -2.5860    -0.2140 h1         1 7OY       0.087200
     36 H15         -1.2670     1.0300     0.6770 hc         1 7OY       0.086700
     37 C10         -5.5980     3.3490     0.5500 c3         1 7OY      -0.154400
     38 F25          0.6190    -0.2730     2.0440 f          1 7OY      -0.235300
     39 C17          1.2270     0.4200    -0.8950 c          1 7OY       0.685700
     40 CL24         5.7930     1.7440     1.1570 cl         1 7OY      -0.066400
     41 H2          -5.3840     4.0060    -0.2960 hc         1 7OY       0.064367
     42 H3          -6.6750     3.3360     0.7030 hc         1 7OY       0.064367
     43 H4          -5.1140     3.7830     1.4240 hc         1 7OY       0.064367
@<TRIPOS>BOND
     1     1     2 1   
     2     1    13 2   
     3     2    18 2   
     4     2    20 1   
     5     3    12 2   
     6     3    17 1   
     7     3    20 1   
     8     4    18 1   
     9     4    19 2   
    10     4    25 1   
    11     5    14 1   
    12     5    16 1   
    13     5    24 1   
    14     5    38 1   
    15     6     7 ar  
    16     6    10 ar  
    17     6    26 1   
    18     7    11 ar  
    19     7    40 1   
    20     8     9 ar  
    21     8    11 ar  
    22     8    27 1   
    23     9    10 ar  
    24     9    28 1   
    25    10    39 1   
    26    11    23 1   
    27    12    13 1   
    28    12    29 1   
    29    13    37 1   
    30    14    17 1   
    31    14    30 1   
    32    14    31 1   
    33    15    17 1   
    34    15    21 1   
    35    15    32 1   
    36    15    33 1   
    37    16    21 1   
    38    16    34 1   
    39    16    35 1   
    40    17    36 1   
    41    19    20 1   
    42    21    39 1   
    43    22    39 2   
    44    37    41 1   
    45    37    42 1   
    46    37    43 1   
@<TRIPOS>SUBSTRUCTURE
     1 7OY         1 TEMP              0 ****  ****    0 ROOT
