@<TRIPOS>MOLECULE
7OY
   43    46     1     0     0
SMALL
No Charge or Current Charge


@<TRIPOS>ATOM
      1 N3          -6.0860     1.1210    -0.3500 nc         1 7OY      -0.635000
      2 C4          -5.4990    -0.0650    -0.6890 cc         1 7OY       0.414500
      3 C6          -3.2930     0.4080     0.1800 cc         1 7OY       0.006700
      4 C8          -5.0950    -2.0290    -1.4220 cd         1 7OY       0.546200
      5 C13         -0.2030    -1.3770     1.7740 c6         1 7OY       0.155000
      6 C20          3.8250     1.1040    -0.3030 ca         1 7OY      -0.028000
      7 C21          5.1920     0.7790    -0.3050 ca         1 7OY       0.057000
      8 C22          4.6580    -1.4500    -1.1270 ca         1 7OY      -0.155000
      9 C23          3.2890    -1.1260    -1.1240 ca         1 7OY      -0.056000
     10 C18          2.8570     0.1500    -0.6910 ca         1 7OY      -0.158600
     11 C27          5.6060    -0.5020    -0.7130 ca         1 7OY       0.201000
     12 C1          -3.8710     1.6240     0.5350 cd         1 7OY      -0.215000
     13 C2          -5.2520     1.9510     0.2630 cd         1 7OY       0.415300
     14 C12         -1.6930    -1.0590     1.5120 c6         1 7OY      -0.126400
     15 C16         -1.0200    -0.2000    -0.8010 c6         1 7OY       0.085000
     16 C14          0.6140    -1.5830     0.4720 c6         1 7OY       0.044000
     17 C11         -1.8330     0.1010     0.4880 c6         1 7OY      -0.044400
     18 N7          -6.0890    -1.0630    -1.3000 nd         1 7OY      -0.374300
     19 N9          -3.9080    -1.6840    -0.9160 nc         1 7OY      -0.618100
     20 N5          -4.2020    -0.4450    -0.4640 na         1 7OY       0.081900
     21 N15          0.4170    -0.4600    -0.5000 n          1 7OY      -0.390800
     22 O19          1.0700     1.6930    -0.9630 o          1 7OY      -0.569100
     23 F28          6.9190    -0.8280    -0.7230 f          1 7OY      -0.155000
     24 F26         -0.1080    -2.5320     2.5700 f          1 7OY      -0.114000
     25 H1          -5.2930    -2.9830    -1.8960 h5         1 7OY       0.075800
     26 H5           3.5160     2.0980     0.0120 ha         1 7OY       0.148000
     27 H6           4.9860    -2.4330    -1.4570 ha         1 7OY       0.141000
     28 H7           2.5710    -1.8640    -1.4780 ha         1 7OY       0.130000
     29 H8          -3.2650     2.3670     1.0410 ha         1 7OY       0.148000
     30 H9          -2.1890    -1.9630     1.1360 hc         1 7OY       0.086700
     31 H10         -2.1950    -0.7990     2.4540 hc         1 7OY       0.086700
     32 H11         -1.4300    -1.0840    -1.3080 h1         1 7OY       0.085200
     33 H12         -1.1200     0.6390    -1.5040 h1         1 7OY       0.085200
     34 H13          1.6700    -1.6900     0.7520 h1         1 7OY       0.087200
     35 H14          0.3050    -2.5250    -0.0030 h1         1 7OY       0.087200
     36 H15         -1.3780     0.9930     0.9400 hc         1 7OY       0.086700
     37 C10         -5.8390     3.2750     0.6610 c3         1 7OY      -0.154400
     38 F25          0.3730    -0.3340     2.5230 f          1 7OY      -0.114000
     39 C17          1.3960     0.5420    -0.7010 c          1 7OY       0.618700
     40 Cl24         6.3710     1.9880     0.2020 cl         1 7OY      -0.158000
     41 H2          -6.0940     3.8690    -0.2240 hc         1 7OY       0.064367
     42 H3          -6.7520     3.1390     1.2520 hc         1 7OY       0.064367
     43 H4          -5.1370     3.8600     1.2650 hc         1 7OY       0.064367
@<TRIPOS>BOND
     1     1     2 1   
     2     1    13 2   
     3     2    18 2   
     4     2    20 1   
     5     3    12 2   
     6     3    17 1   
     7     3    20 1   
     8     4    18 1   
     9     4    19 2   
    10     4    25 1   
    11     5    14 1   
    12     5    16 1   
    13     5    24 1   
    14     5    38 1   
    15     6     7 ar  
    16     6    10 ar  
    17     6    26 1   
    18     7    11 ar  
    19     7    40 1   
    20     8     9 ar  
    21     8    11 ar  
    22     8    27 1   
    23     9    10 ar  
    24     9    28 1   
    25    10    39 1   
    26    11    23 1   
    27    12    13 1   
    28    12    29 1   
    29    13    37 1   
    30    14    17 1   
    31    14    30 1   
    32    14    31 1   
    33    15    17 1   
    34    15    21 1   
    35    15    32 1   
    36    15    33 1   
    37    16    21 1   
    38    16    34 1   
    39    16    35 1   
    40    17    36 1   
    41    19    20 1   
    42    21    39 1   
    43    22    39 2   
    44    37    41 1   
    45    37    42 1   
    46    37    43 1   
@<TRIPOS>SUBSTRUCTURE
     1 7OY         1 TEMP              0 ****  ****    0 ROOT
