@<TRIPOS>MOLECULE
7OZ
   15    14     1     0     0
SMALL
bcc


@<TRIPOS>ATOM
      1 N           97.7240     9.8130   266.6390 n8         1 7OZ      -0.906800
      2 CA          97.4940    10.8190   265.6110 c3         1 7OZ       0.020500
      3 C           98.7710    11.0500   264.7570 c          1 7OZ       0.927600
      4 O           98.7750    12.0590   264.0260 o          1 7OZ      -0.835800
      5 CB          97.0020    12.1240   266.2400 c3         1 7OZ      -0.076400
      6 CG          95.7730    11.9720   267.1000 c3         1 7OZ       0.159900
      7 FAE         94.6880    11.5170   266.3390 f          1 7OZ      -0.280300
      8 OXT         99.6680    10.1860   264.8400 o          1 7OZ      -0.835800
      9 H           96.9020     9.2390   266.7630 hn         1 7OZ       0.332300
     10 H2          98.4610     9.2060   266.3030 hn         1 7OZ       0.332300
     11 HA          96.7270    10.4910   264.8900 h1         1 7OZ       0.011700
     12 HB2         97.7860    12.5310   266.8880 hc         1 7OZ       0.052700
     13 HB3         96.8180    12.8690   265.4650 hc         1 7OZ       0.052700
     14 HG3         95.4830    12.9280   267.5420 h1         1 7OZ       0.023200
     15 HG2         95.9380    11.2540   267.9050 h1         1 7OZ       0.023200
@<TRIPOS>BOND
     1     1     2 1   
     2     1     9 1   
     3     1    10 1   
     4     2     3 1   
     5     2     5 1   
     6     2    11 1   
     7     3     4 1   
     8     3     8 1   
     9     5     6 1   
    10     5    12 1   
    11     5    13 1   
    12     6     7 1   
    13     6    14 1   
    14     6    15 1   
@<TRIPOS>SUBSTRUCTURE
     1 7OZ         1 TEMP              0 ****  ****    0 ROOT
