@<TRIPOS>MOLECULE
7P0
   64    68     1     0     0
SMALL
abcg2


@<TRIPOS>ATOM
      1 C20         -2.4740     0.5040    -0.2800 c          1 7P0       0.630700
      2 O22         -2.3290     0.9480    -1.4090 o          1 7P0      -0.600100
      3 C21         -3.7320    -0.1950     0.1170 ca         1 7P0      -0.199600
      4 C23         -4.2000    -0.2250     1.4380 ca         1 7P0      -0.023000
      5 C24         -5.3790    -0.8530     1.7620 ca         1 7P0      -0.188000
      6 C27         -6.1290    -1.4850     0.7640 ca         1 7P0       0.137600
      7 C26         -5.6770    -1.4590    -0.5640 ca         1 7P0      -0.159800
      8 C25         -4.4860    -0.8000    -0.8720 ca         1 7P0       0.031000
      9 C31         -6.4890    -2.1280    -1.5540 cc         1 7P0       0.246900
     10 C30         -7.6410    -2.7480    -1.1980 cd         1 7P0      -0.438200
     11 C29         -8.1060    -2.7720     0.1660 c          1 7P0       0.588200
     12 O32         -9.1380    -3.3170     0.5390 o          1 7P0      -0.551000
     13 N28         -7.2950    -2.1220     1.0700 ns         1 7P0      -0.380100
     14 O40         -6.0210    -2.0850    -2.7970 oh         1 7P0      -0.515100
     15 N19         -1.5310     0.5880     0.6760 ns         1 7P0      -0.494900
     16 C17         -0.3110     1.3380     0.5360 c3         1 7P0       0.034700
     17 C16          0.8700     0.4440     0.9010 c          1 7P0       0.587100
     18 O39          0.8080    -0.3240     1.8500 o          1 7P0      -0.605100
     19 C18         -0.3190     2.5750     1.4550 c3         1 7P0      -0.043100
     20 C33         -1.4740     3.4780     1.1350 ca         1 7P0      -0.083300
     21 C34         -2.6760     3.3740     1.8310 ca         1 7P0      -0.101000
     22 C38         -1.3820     4.4040     0.0990 ca         1 7P0      -0.101000
     23 C35         -3.7620     4.1740     1.4990 ca         1 7P0      -0.105000
     24 C37         -2.4620     5.2070    -0.2350 ca         1 7P0      -0.105000
     25 C36         -3.6580     5.0930     0.4640 ca         1 7P0      -0.103000
     26 C1           7.2940    -1.8530    -0.9050 ca         1 7P0      -0.090000
     27 C2           8.0370    -1.6080     0.2350 ca         1 7P0      -0.094000
     28 C3           7.5560    -0.6900     1.1560 ca         1 7P0       0.133000
     29 C4           6.3660    -0.0150     0.9460 ca         1 7P0      -0.098000
     30 C5           5.6160    -0.2410    -0.2040 ca         1 7P0      -0.039300
     31 C6           6.1010    -1.1770    -1.1150 ca         1 7P0      -0.006200
     32 N8           5.3850    -1.4530    -2.3080 na         1 7P0       0.003500
     33 C9           5.7640    -1.2870    -3.5790 cc         1 7P0       0.390400
     34 N10          4.7950    -1.7050    -4.3480 nd         1 7P0      -0.379000
     35 N11          3.8290    -2.1240    -3.5270 nd         1 7P0      -0.039000
     36 N12          4.1660    -1.9850    -2.3090 nc         1 7P0      -0.194800
     37 C13          4.3330     0.5140    -0.3990 c3         1 7P0      -0.052100
     38 C14          3.1830    -0.1430     0.3600 c3         1 7P0       0.105000
     39 N15          1.9600     0.6030     0.1450 ns         1 7P0      -0.500900
     40 H23         -3.6550     0.2720     2.2300 ha         1 7P0       0.116000
     41 H25         -4.1410    -0.7680    -1.8960 ha         1 7P0       0.154000
     42 H24         -5.7320    -0.8560     2.7850 ha         1 7P0       0.125000
     43 H28         -7.5980    -2.1280     2.0340 hn         1 7P0       0.329500
     44 H30         -8.2530    -3.2530    -1.9350 ha         1 7P0       0.210000
     45 H40         -6.6080    -2.5540    -3.4040 ho         1 7P0       0.481000
     46 H19         -1.6620     0.1030     1.5500 hn         1 7P0       0.331500
     47 H17         -0.2350     1.6650    -0.5010 h1         1 7P0       0.092700
     48 H181        -0.3700     2.2420     2.4950 hc         1 7P0       0.058700
     49 H182         0.6270     3.1080     1.3360 hc         1 7P0       0.058700
     50 H34         -2.7630     2.6650     2.6460 ha         1 7P0       0.106000
     51 H38         -0.4520     4.4980    -0.4520 ha         1 7P0       0.106000
     52 H35         -4.6870     4.0800     2.0520 ha         1 7P0       0.113000
     53 H37         -2.3720     5.9250    -1.0400 ha         1 7P0       0.113000
     54 H36         -4.5010     5.7210     0.2060 ha         1 7P0       0.114000
     55 H1           7.6440    -2.5760    -1.6290 ha         1 7P0       0.136000
     56 H2           8.9680    -2.1310     0.4020 ha         1 7P0       0.142000
     57 H4           6.0160     0.7060     1.6730 ha         1 7P0       0.141000
     58 H9           6.7080    -0.8680    -3.8840 h5         1 7P0       0.079100
     59 H131         4.4660     1.5350    -0.0350 hc         1 7P0       0.059700
     60 H132         4.0850     0.5920    -1.4600 hc         1 7P0       0.059700
     61 H141         3.0620    -1.1790     0.0340 h1         1 7P0       0.067200
     62 H142         3.4080    -0.1630     1.4270 h1         1 7P0       0.067200
     63 H15          1.9020     1.1920    -0.6700 hn         1 7P0       0.318500
     64 CL7          8.4630    -0.3750     2.5920 cl         1 7P0      -0.176000
@<TRIPOS>BOND
     1     1     2 2   
     2     1     3 1   
     3     1    15 1   
     4     3     4 ar  
     5     3     8 ar  
     6     4     5 ar  
     7     4    40 1   
     8     5     6 ar  
     9     5    42 1   
    10     6     7 ar  
    11     6    13 1   
    12     7     8 ar  
    13     7     9 1   
    14     8    41 1   
    15     9    10 2   
    16     9    14 1   
    17    10    11 1   
    18    10    44 1   
    19    11    12 2   
    20    11    13 1   
    21    13    43 1   
    22    14    45 1   
    23    15    16 1   
    24    15    46 1   
    25    16    17 1   
    26    16    19 1   
    27    16    47 1   
    28    17    18 2   
    29    17    39 1   
    30    19    20 1   
    31    19    48 1   
    32    19    49 1   
    33    20    21 ar  
    34    20    22 ar  
    35    21    23 ar  
    36    21    50 1   
    37    22    24 ar  
    38    22    51 1   
    39    23    25 ar  
    40    23    52 1   
    41    24    25 ar  
    42    24    53 1   
    43    25    54 1   
    44    26    27 ar  
    45    26    31 ar  
    46    26    55 1   
    47    27    28 ar  
    48    27    56 1   
    49    28    29 ar  
    50    28    64 1   
    51    29    30 ar  
    52    29    57 1   
    53    30    31 ar  
    54    30    37 1   
    55    31    32 1   
    56    32    33 1   
    57    32    36 1   
    58    33    34 2   
    59    33    58 1   
    60    34    35 1   
    61    35    36 2   
    62    37    38 1   
    63    37    59 1   
    64    37    60 1   
    65    38    39 1   
    66    38    61 1   
    67    38    62 1   
    68    39    63 1   
@<TRIPOS>SUBSTRUCTURE
     1 7P0         1 TEMP              0 ****  ****    0 ROOT
