@<TRIPOS>MOLECULE
7P0
   64    68     1     0     0
SMALL
No Charge or Current Charge


@<TRIPOS>ATOM
      1 C20         -2.6250     0.3270    -0.4560 c          1 7P0       0.630700
      2 O22         -2.6010     0.9670    -1.4980 o          1 7P0      -0.600100
      3 C21         -3.8520    -0.4360    -0.0130 ca         1 7P0      -0.199600
      4 C23         -3.8900    -1.1720     1.1950 ca         1 7P0      -0.023000
      5 C24         -5.0550    -1.8600     1.5670 ca         1 7P0      -0.188000
      6 C27         -6.1890    -1.8220     0.7460 ca         1 7P0       0.137600
      7 C26         -6.1810    -1.0990    -0.4560 ca         1 7P0      -0.159800
      8 C25         -5.0070    -0.4060    -0.8290 ca         1 7P0       0.031000
      9 C31         -7.3920    -1.0840    -1.2850 cc         1 7P0       0.246900
     10 C30         -8.4930    -1.7830    -0.8510 cd         1 7P0      -0.438200
     11 C29         -8.5250    -2.5470     0.4040 c          1 7P0       0.588200
     12 O32         -9.5000    -3.1680     0.7910 o          1 7P0      -0.551000
     13 N28         -7.3560    -2.5030     1.1070 ns         1 7P0      -0.380100
     14 O40         -7.3730    -0.3900    -2.4330 oh         1 7P0      -0.515100
     15 N19         -1.5240     0.2580     0.3700 ns         1 7P0      -0.494900
     16 C17         -0.2630     1.0160     0.1810 c3         1 7P0       0.034700
     17 C16          0.9630     0.1300     0.5440 c          1 7P0       0.587100
     18 O39          0.8690    -0.9330     1.1460 o          1 7P0      -0.605100
     19 C18         -0.2740     2.3270     1.0130 c3         1 7P0      -0.043100
     20 C33         -1.4800     3.2170     0.7280 ca         1 7P0      -0.083300
     21 C34         -2.6090     3.1800     1.5720 ca         1 7P0      -0.101000
     22 C38         -1.4780     4.0770    -0.3870 ca         1 7P0      -0.101000
     23 C35         -3.7230     3.9920     1.3010 ca         1 7P0      -0.105000
     24 C37         -2.5930     4.8910    -0.6570 ca         1 7P0      -0.105000
     25 C36         -3.7160     4.8480     0.1860 ca         1 7P0      -0.103000
     26 C1           7.6340    -1.7390    -0.5060 ca         1 7P0      -0.090000
     27 C2           8.4510    -1.2530     0.5290 ca         1 7P0      -0.094000
     28 C3           8.0360    -0.1470     1.2840 ca         1 7P0       0.133000
     29 C4           6.8080     0.4740     1.0090 ca         1 7P0      -0.098000
     30 C5           5.9780    -0.0010    -0.0270 ca         1 7P0      -0.039300
     31 C6           6.3990    -1.1210    -0.7920 ca         1 7P0      -0.006200
     32 N8           5.6200    -1.6340    -1.8270 na         1 7P0       0.003500
     33 C9           5.5340    -1.1100    -3.0830 cc         1 7P0       0.390400
     34 N10          4.7280    -1.9220    -3.7460 nd         1 7P0      -0.379000
     35 N11          4.3610    -2.9250    -2.8640 nd         1 7P0      -0.039000
     36 N12          4.9090    -2.7700    -1.6850 nc         1 7P0      -0.194800
     37 C13          4.6400     0.6970    -0.2770 c3         1 7P0      -0.052100
     38 C14          3.4630    -0.0540     0.3740 c3         1 7P0       0.105000
     39 N15          2.1850     0.6220     0.1360 ns         1 7P0      -0.500900
     40 H23         -3.0300    -1.2220     1.8580 ha         1 7P0       0.116000
     41 H25         -4.9910     0.1590    -1.7590 ha         1 7P0       0.154000
     42 H24         -5.0730    -2.4230     2.4980 ha         1 7P0       0.125000
     43 H28         -7.3410    -3.0180     1.9770 hn         1 7P0       0.329500
     44 H30         -9.4180    -1.8150    -1.4130 ha         1 7P0       0.210000
     45 H40         -8.2580    -0.5010    -2.8370 ho         1 7P0       0.481000
     46 H19         -1.5990    -0.3400     1.1830 hn         1 7P0       0.331500
     47 H17         -0.1590     1.2750    -0.8800 h1         1 7P0       0.092700
     48 H181        -0.2450     2.0690     2.0790 hc         1 7P0       0.058700
     49 H182         0.6480     2.8870     0.8170 hc         1 7P0       0.058700
     50 H34         -2.6250     2.5180     2.4340 ha         1 7P0       0.106000
     51 H38         -0.6150     4.1120    -1.0480 ha         1 7P0       0.106000
     52 H35         -4.5930     3.9570     1.9540 ha         1 7P0       0.113000
     53 H37         -2.5860     5.5520    -1.5210 ha         1 7P0       0.113000
     54 H36         -4.5790     5.4760    -0.0240 ha         1 7P0       0.114000
     55 H1           7.9600    -2.5990    -1.0870 ha         1 7P0       0.136000
     56 H2           9.4020    -1.7330     0.7450 ha         1 7P0       0.142000
     57 H4           6.5000     1.3260     1.6100 ha         1 7P0       0.141000
     58 H9           6.0360    -0.2130    -3.4230 h5         1 7P0       0.079100
     59 H131         4.6680     1.7180     0.1230 hc         1 7P0       0.059700
     60 H132         4.4510     0.8060    -1.3510 hc         1 7P0       0.059700
     61 H141         3.4050    -1.0730    -0.0290 h1         1 7P0       0.067200
     62 H142         3.6300    -0.1260     1.4580 h1         1 7P0       0.067200
     63 H15          2.1860     1.5050    -0.3610 hn         1 7P0       0.318500
     64 Cl7          9.0560     0.4610     2.5810 cl         1 7P0      -0.176000
@<TRIPOS>BOND
     1     1     2 2   
     2     1     3 1   
     3     1    15 1   
     4     3     4 ar  
     5     3     8 ar  
     6     4     5 ar  
     7     4    40 1   
     8     5     6 ar  
     9     5    42 1   
    10     6     7 ar  
    11     6    13 1   
    12     7     8 ar  
    13     7     9 1   
    14     8    41 1   
    15     9    10 2   
    16     9    14 1   
    17    10    11 1   
    18    10    44 1   
    19    11    12 2   
    20    11    13 1   
    21    13    43 1   
    22    14    45 1   
    23    15    16 1   
    24    15    46 1   
    25    16    17 1   
    26    16    19 1   
    27    16    47 1   
    28    17    18 2   
    29    17    39 1   
    30    19    20 1   
    31    19    48 1   
    32    19    49 1   
    33    20    21 ar  
    34    20    22 ar  
    35    21    23 ar  
    36    21    50 1   
    37    22    24 ar  
    38    22    51 1   
    39    23    25 ar  
    40    23    52 1   
    41    24    25 ar  
    42    24    53 1   
    43    25    54 1   
    44    26    27 ar  
    45    26    31 ar  
    46    26    55 1   
    47    27    28 ar  
    48    27    56 1   
    49    28    29 ar  
    50    28    64 1   
    51    29    30 ar  
    52    29    57 1   
    53    30    31 ar  
    54    30    37 1   
    55    31    32 1   
    56    32    33 1   
    57    32    36 1   
    58    33    34 2   
    59    33    58 1   
    60    34    35 1   
    61    35    36 2   
    62    37    38 1   
    63    37    59 1   
    64    37    60 1   
    65    38    39 1   
    66    38    61 1   
    67    38    62 1   
    68    39    63 1   
@<TRIPOS>SUBSTRUCTURE
     1 7P0         1 TEMP              0 ****  ****    0 ROOT
