@<TRIPOS>MOLECULE
7P4
   43    46     1     0     0
SMALL
bcc


@<TRIPOS>ATOM
      1 N3          -5.7290    -0.8930     0.1960 nc         1 7P4      -0.633000
      2 C4          -5.1520     0.2510     0.5630 cc         1 7P4       0.413500
      3 C6          -2.9760    -0.4240    -0.1700 cc         1 7P4       0.056400
      4 C8          -4.6710     2.1530     1.2670 cd         1 7P4       0.545200
      5 C13          0.1880     1.3170    -1.4600 c6         1 7P4       0.398600
      6 C20          3.6840    -1.2250    -0.2480 ca         1 7P4      -0.097000
      7 C21          5.0390    -1.0170    -0.3730 ca         1 7P4       0.092900
      8 C22          4.9500     0.7980     1.1940 ca         1 7P4      -0.155000
      9 C26          5.6700    -0.0150     0.3460 ca         1 7P4       0.118900
     10 C23          3.5800     0.6100     1.3100 ca         1 7P4      -0.092000
     11 C18          2.9440    -0.3930     0.5880 ca         1 7P4      -0.139600
     12 C1          -3.5650    -1.5940    -0.5440 cd         1 7P4      -0.298300
     13 C2          -4.9560    -1.8020    -0.3480 cd         1 7P4       0.479600
     14 C12         -1.2890     1.0200    -1.3460 c6         1 7P4      -0.127400
     15 C16         -0.7860     0.1280     0.9660 c6         1 7P4       0.086000
     16 C14          0.8620     1.5280    -0.1140 c6         1 7P4       0.045000
     17 C11         -1.5210    -0.1350    -0.3580 c6         1 7P4      -0.043400
     18 N7          -5.7050     1.3120     1.1240 nd         1 7P4      -0.372300
     19 N9          -3.5040     1.7160     0.8430 nc         1 7P4      -0.617100
     20 N5          -3.8090     0.4920     0.3890 na         1 7P4       0.031200
     21 N15          0.6250     0.3570     0.7060 n          1 7P4      -0.459800
     22 O19          1.1350    -1.8250     1.0350 o          1 7P4      -0.569100
     23 F28          5.7670    -1.7890    -1.1840 f          1 7P4      -0.119900
     24 F25          0.3880     2.4150    -2.2410 f          1 7P4      -0.235300
     25 H1          -4.7680     3.1360     1.7030 h5         1 7P4       0.075800
     26 H5           3.2130    -2.0240    -0.8060 ha         1 7P4       0.169000
     27 H6           5.4560     1.5700     1.7580 ha         1 7P4       0.159000
     28 H7           3.0160     1.2460     1.9800 ha         1 7P4       0.148000
     29 H8          -2.9640    -2.3690    -0.9990 ha         1 7P4       0.165000
     30 H9          -1.7870     1.9260    -0.9940 hc         1 7P4       0.086700
     31 H10         -1.6970     0.7710    -2.3280 hc         1 7P4       0.086700
     32 H11         -1.1820     1.0190     1.4550 h1         1 7P4       0.085200
     33 H12         -0.9030    -0.7110     1.6460 h1         1 7P4       0.085200
     34 H13          1.9240     1.7150    -0.2590 h1         1 7P4       0.087200
     35 H14          0.4330     2.4060     0.3740 h1         1 7P4       0.087200
     36 H15         -1.1030    -1.0490    -0.7890 hc         1 7P4       0.085700
     37 C10         -5.5660    -3.0940    -0.7790 c3         1 7P4      -0.154400
     38 F24          0.8200     0.2800    -2.0970 f          1 7P4      -0.235300
     39 C17          1.4910    -0.6890     0.7750 c          1 7P4       0.685700
     40 F27          6.9870     0.1490     0.2060 f          1 7P4      -0.119900
     41 H2          -5.0800    -3.9320    -0.2780 hc         1 7P4       0.064700
     42 H3          -6.6290    -3.1180    -0.5580 hc         1 7P4       0.064700
     43 H4          -5.4260    -3.2400    -1.8510 hc         1 7P4       0.064700
@<TRIPOS>BOND
     1     1     2 1   
     2     1    13 2   
     3     2    18 2   
     4     2    20 1   
     5     3    12 2   
     6     3    17 1   
     7     3    20 1   
     8     4    18 1   
     9     4    19 2   
    10     4    25 1   
    11     5    14 1   
    12     5    16 1   
    13     5    24 1   
    14     5    38 1   
    15     6     7 ar  
    16     6    11 ar  
    17     6    26 1   
    18     7     9 ar  
    19     7    23 1   
    20     8     9 ar  
    21     8    10 ar  
    22     8    27 1   
    23     9    40 1   
    24    10    11 ar  
    25    10    28 1   
    26    11    39 1   
    27    12    13 1   
    28    12    29 1   
    29    13    37 1   
    30    14    17 1   
    31    14    30 1   
    32    14    31 1   
    33    15    17 1   
    34    15    21 1   
    35    15    32 1   
    36    15    33 1   
    37    16    21 1   
    38    16    34 1   
    39    16    35 1   
    40    17    36 1   
    41    19    20 1   
    42    21    39 1   
    43    22    39 2   
    44    37    41 1   
    45    37    42 1   
    46    37    43 1   
@<TRIPOS>SUBSTRUCTURE
     1 7P4         1 TEMP              0 ****  ****    0 ROOT
