@<TRIPOS>MOLECULE
7P4
   43    46     1     0     0
SMALL
No Charge or Current Charge


@<TRIPOS>ATOM
      1 N3          -5.8770    -0.9740     0.3610 nc         1 7P4      -0.633000
      2 C4          -5.2240     0.1450     0.7920 cc         1 7P4       0.413500
      3 C6          -3.0630    -0.3510    -0.1730 cc         1 7P4       0.005700
      4 C8          -4.7050     2.0110     1.6910 cd         1 7P4       0.545200
      5 C13          0.0800     1.4220    -1.6740 c6         1 7P4       0.156000
      6 C20          4.0250    -1.4320     0.0680 ca         1 7P4      -0.079000
      7 C21          5.4050    -1.1700     0.0700 ca         1 7P4       0.128000
      8 C22          4.9990     0.9960     1.0990 ca         1 7P4      -0.137000
      9 C26          5.8920     0.0460     0.5800 ca         1 7P4       0.154000
     10 C23          3.6160     0.7370     1.0990 ca         1 7P4      -0.074000
     11 C18          3.1110    -0.4730     0.5630 ca         1 7P4      -0.139600
     12 C1          -3.7090    -1.5000    -0.6230 cd         1 7P4      -0.215000
     13 C2          -5.0990    -1.7830    -0.3470 cd         1 7P4       0.414300
     14 C12         -1.4190     1.1540    -1.4040 c6         1 7P4      -0.127400
     15 C16         -0.7420     0.0520     0.8020 c6         1 7P4       0.086000
     16 C14          0.9330     1.4660    -0.3800 c6         1 7P4       0.045000
     17 C11         -1.5960    -0.0880    -0.4880 c6         1 7P4      -0.043400
     18 N7          -5.7490     1.1090     1.5070 nd         1 7P4      -0.372300
     19 N9          -3.5480     1.6570     1.1260 nc         1 7P4      -0.617100
     20 N5          -3.9140     0.4810     0.5700 na         1 7P4       0.081900
     21 N15          0.7000     0.2690     0.4900 n          1 7P4      -0.392800
     22 O19          1.2520    -1.9470     0.7370 o          1 7P4      -0.569100
     23 F28          6.2610    -2.0970    -0.4210 f          1 7P4      -0.155000
     24 F25          0.2160     2.6400    -2.3620 f          1 7P4      -0.114000
     25 H1          -4.8450     2.9250     2.2560 h5         1 7P4       0.075800
     26 H5           3.6660    -2.3800    -0.3280 ha         1 7P4       0.151000
     27 H6           5.3800     1.9290     1.5080 ha         1 7P4       0.141000
     28 H7           2.9420     1.4730     1.5340 ha         1 7P4       0.130000
     29 H8          -3.1520    -2.2210    -1.2100 ha         1 7P4       0.147000
     30 H9          -1.8600     2.0420    -0.9340 hc         1 7P4       0.086700
     31 H10         -1.9520     1.0060    -2.3530 hc         1 7P4       0.086700
     32 H11         -1.0960     0.9030     1.3990 h1         1 7P4       0.085200
     33 H12         -0.8700    -0.8430     1.4280 h1         1 7P4       0.085200
     34 H13          1.9870     1.5470    -0.6760 h1         1 7P4       0.087200
     35 H14          0.6830     2.3730     0.1880 h1         1 7P4       0.087200
     36 H15         -1.1960    -0.9550    -1.0320 hc         1 7P4       0.085700
     37 C10         -5.7600    -3.0350    -0.8490 c3         1 7P4      -0.154400
     38 F24          0.5870     0.4260    -2.5300 f          1 7P4      -0.114000
     39 C17          1.6310    -0.7940     0.5730 c          1 7P4       0.618700
     40 F27          7.2200     0.3040     0.5860 f          1 7P4      -0.155000
     41 H2          -6.0010    -3.7080    -0.0180 hc         1 7P4       0.064700
     42 H3          -6.6910    -2.8030    -1.3800 hc         1 7P4       0.064700
     43 H4          -5.1110    -3.5800    -1.5440 hc         1 7P4       0.064700
@<TRIPOS>BOND
     1     1     2 1   
     2     1    13 2   
     3     2    18 2   
     4     2    20 1   
     5     3    12 2   
     6     3    17 1   
     7     3    20 1   
     8     4    18 1   
     9     4    19 2   
    10     4    25 1   
    11     5    14 1   
    12     5    16 1   
    13     5    24 1   
    14     5    38 1   
    15     6     7 ar  
    16     6    11 ar  
    17     6    26 1   
    18     7     9 ar  
    19     7    23 1   
    20     8     9 ar  
    21     8    10 ar  
    22     8    27 1   
    23     9    40 1   
    24    10    11 ar  
    25    10    28 1   
    26    11    39 1   
    27    12    13 1   
    28    12    29 1   
    29    13    37 1   
    30    14    17 1   
    31    14    30 1   
    32    14    31 1   
    33    15    17 1   
    34    15    21 1   
    35    15    32 1   
    36    15    33 1   
    37    16    21 1   
    38    16    34 1   
    39    16    35 1   
    40    17    36 1   
    41    19    20 1   
    42    21    39 1   
    43    22    39 2   
    44    37    41 1   
    45    37    42 1   
    46    37    43 1   
@<TRIPOS>SUBSTRUCTURE
     1 7P4         1 TEMP              0 ****  ****    0 ROOT
