@<TRIPOS>MOLECULE
7P7
  107   113     1     0     0
SMALL
bcc


@<TRIPOS>ATOM
      1 C1          10.1060     2.3490    -0.7580 cc         1 7P7      -0.219600
      2 C2           8.7600     2.2280    -0.4550 cd         1 7P7       0.063100
      3 C3          10.0310     0.1190    -0.1660 cd         1 7P7      -0.207000
      4 C4          10.4500    -1.2650     0.1260 cf         1 7P7       0.704800
      5 C5           9.7120    -3.6020     0.2170 c6         1 7P7       0.219500
      6 C6           8.4210    -4.2660     0.6970 c6         1 7P7      -0.076400
      7 S            8.3810     0.6280     0.0480 ss         1 7P7      -0.034800
      8 N1          11.6260    -1.5850     0.5100 n2         1 7P7      -0.840100
      9 C7           8.6230    -5.7290     1.0650 c6         1 7P7      -0.181100
     10 C8          10.6460    -5.7340    -0.8160 c6         1 7P7      -0.181100
     11 N2          -0.8420     2.0530    -0.2140 ns         1 7P7      -0.580900
     12 N            9.4630    -2.1960    -0.0040 nu         1 7P7      -0.842200
     13 C           10.6720     3.6130    -1.1620 c          1 7P7       0.728100
     14 O           11.8490     3.7900    -1.4490 o          1 7P7      -0.619500
     15 C10         10.8230     1.1360    -0.5930 cc         1 7P7      -0.048000
     16 C11          7.8730     3.3320    -0.5240 cd         1 7P7      -0.092400
     17 C12          6.4350     3.2390    -0.2130 ca         1 7P7      -0.031800
     18 C13          5.8460     4.1790     0.6410 ca         1 7P7      -0.187000
     19 C14          4.4900     4.1420     0.9170 ca         1 7P7       0.125100
     20 C15          4.5900     6.0390     2.3280 c3         1 7P7       0.121700
     21 C16          3.6910     3.1330     0.3400 ca         1 7P7       0.113100
     22 C17          1.5270     2.2380     0.0710 c3         1 7P7       0.048400
     23 C18          0.1240     2.5060     0.5950 c          1 7P7       0.672100
     24 C19         -2.2580     2.1220     0.0810 c3         1 7P7       0.101000
     25 C20         -2.9810     0.8510    -0.3390 c3         1 7P7      -0.095400
     26 C21         -4.4800     0.9480    -0.0910 c3         1 7P7      -0.073400
     27 C22         -5.2320    -0.3050    -0.5180 c3         1 7P7      -0.073400
     28 C23         -6.7340    -0.1900    -0.2860 c3         1 7P7      -0.083400
     29 C24         -7.4560    -1.4400    -0.7370 c3         1 7P7       0.141400
     30 C25         -9.7040    -2.2080    -0.8610 ca         1 7P7       0.221100
     31 C26         -9.3410    -3.4430    -1.4220 ca         1 7P7      -0.212000
     32 C27        -10.3010    -4.3860    -1.7590 ca         1 7P7      -0.070000
     33 C28        -11.6620    -4.1600    -1.5590 ca         1 7P7      -0.106000
     34 C29        -12.0030    -2.9470    -1.0090 ca         1 7P7      -0.100600
     35 C30        -13.3440    -2.4110    -0.6800 c          1 7P7       0.732100
     36 C31        -14.2090    -0.2900     0.2910 c6         1 7P7       0.041700
     37 C32        -13.9250     1.1500    -0.1240 c          1 7P7       0.721500
     38 C33        -13.5500     1.8190     2.2270 c          1 7P7       0.730500
     39 C34        -13.6190     0.3830     2.6560 c6         1 7P7      -0.163400
     40 C35        -14.5470    -0.4270     1.7690 c6         1 7P7      -0.087400
     41 C36        -11.0630    -1.9870    -0.6650 ca         1 7P7      -0.198600
     42 C37        -11.7750    -0.8220    -0.1130 c          1 7P7       0.746100
     43 C38          4.2780     2.1970    -0.4930 ca         1 7P7      -0.188000
     44 C39          5.6420     2.2510    -0.7720 ca         1 7P7      -0.121000
     45 C40          8.4420     4.5100    -0.8990 cc         1 7P7       0.037600
     46 C9          10.2910    -4.2700    -1.0360 c6         1 7P7      -0.076400
     47 N3         -13.1290    -1.1470    -0.1520 n          1 7P7      -0.530400
     48 N4         -13.7880     2.0660     0.8870 ns         1 7P7      -0.602500
     49 N5           9.7620     4.6560    -1.1960 n          1 7P7      -0.342000
     50 O10         -0.0680     3.0470     1.6700 o          1 7P7      -0.560100
     51 O3           3.8440     5.0050     1.7180 os         1 7P7      -0.286900
     52 O4           2.3840     3.1770     0.6630 os         1 7P7      -0.265900
     53 O5          -8.8520    -1.2520    -0.5090 os         1 7P7      -0.294900
     54 O6         -13.2960     2.7360     2.9720 o          1 7P7      -0.589500
     55 O7         -13.8840     1.4790    -1.2850 o          1 7P7      -0.580500
     56 O8         -14.4200    -2.9320    -0.8260 o          1 7P7      -0.560500
     57 O9         -11.3450     0.2260     0.2970 o          1 7P7      -0.554500
     58 S1           9.2010    -6.6730    -0.3390 s6         1 7P7       0.993000
     59 H1          10.4520    -3.6740     1.0180 h1         1 7P7       0.090700
     60 H2           8.0630    -3.7450     1.5870 hc         1 7P7       0.067450
     61 H3           7.6370    -4.1750    -0.0600 hc         1 7P7       0.067450
     62 H4          12.1910    -0.7600     0.6690 hn         1 7P7       0.397400
     63 H5           9.3680    -5.8490     1.8540 h1         1 7P7       0.105200
     64 H6           7.6950    -6.2030     1.3910 h1         1 7P7       0.105200
     65 H7          11.0320    -6.2050    -1.7210 h1         1 7P7       0.105200
     66 H8          11.3830    -5.8610    -0.0200 h1         1 7P7       0.105200
     67 H9          -0.5810     1.6850    -1.1160 hn         1 7P7       0.308500
     68 H10          8.7130    -1.9870    -0.6480 hn         1 7P7       0.423800
     69 H11         11.8800     1.0300    -0.7990 ha         1 7P7       0.173000
     70 H12          6.4740     4.9340     1.0960 ha         1 7P7       0.139000
     71 H13          3.8860     6.6220     2.9160 h1         1 7P7       0.041367
     72 H14          5.3640     5.6460     2.9920 h1         1 7P7       0.041367
     73 H15          5.0590     6.6950     1.5900 h1         1 7P7       0.041367
     74 H16          1.8060     1.2110     0.3400 h1         1 7P7       0.046200
     75 H17          1.5540     2.3070    -1.0230 h1         1 7P7       0.046200
     76 H18         -2.3770     2.2860     1.1510 h1         1 7P7       0.058700
     77 H19         -2.7030     2.9850    -0.4250 h1         1 7P7       0.058700
     78 H20         -2.8030     0.6600    -1.4030 hc         1 7P7       0.042700
     79 H21         -2.5650    -0.0010     0.2060 hc         1 7P7       0.042700
     80 H22         -4.6620     1.1400     0.9720 hc         1 7P7       0.047200
     81 H23         -4.8830     1.8120    -0.6300 hc         1 7P7       0.047200
     82 H24         -5.0400    -0.5010    -1.5780 hc         1 7P7       0.038700
     83 H25         -4.8390    -1.1690     0.0280 hc         1 7P7       0.038700
     84 H26         -6.9310    -0.0130     0.7750 hc         1 7P7       0.064200
     85 H27         -7.1250     0.6730    -0.8330 hc         1 7P7       0.064200
     86 H28         -7.2750    -1.6250    -1.8010 h1         1 7P7       0.038200
     87 H29         -7.1000    -2.3120    -0.1780 h1         1 7P7       0.038200
     88 H30         -8.3020    -3.6830    -1.5990 ha         1 7P7       0.143000
     89 H31         -9.9720    -5.3230    -2.1890 ha         1 7P7       0.140000
     90 H32        -12.4050    -4.9000    -1.8250 ha         1 7P7       0.161000
     91 H33        -15.0850    -0.5850    -0.2900 h1         1 7P7       0.102700
     92 H34        -12.6020    -0.0180     2.6450 hc         1 7P7       0.084700
     93 H35        -13.9470     0.3550     3.6940 hc         1 7P7       0.084700
     94 H36        -15.5730    -0.0810     1.9090 hc         1 7P7       0.066700
     95 H37        -14.5340    -1.4790     2.0540 hc         1 7P7       0.066700
     96 H38          3.6890     1.4170    -0.9550 ha         1 7P7       0.136000
     97 H39          6.0610     1.5300    -1.4620 ha         1 7P7       0.137000
     98 H40          7.8440     5.4050    -0.9910 h4         1 7P7       0.154000
     99 H41         10.6650     5.9290    -2.6050 h1         1 7P7       0.056033
    100 H42          9.4570     6.6820    -1.5560 h1         1 7P7       0.056033
    101 H43         11.0570     6.2890    -0.9180 h1         1 7P7       0.056033
    102 H44          9.5870    -4.1780    -1.8670 hc         1 7P7       0.067450
    103 H45         11.2030    -3.7480    -1.3290 hc         1 7P7       0.067450
    104 H46        -13.6870     3.0320     0.5930 hn         1 7P7       0.330500
    105 C41         10.2690     5.9630    -1.5930 c3         1 7P7       0.078300
    106 O1           8.2050    -6.5650    -1.4080 o          1 7P7      -0.590800
    107 O2           9.6020    -8.0110     0.0950 o          1 7P7      -0.590800
@<TRIPOS>BOND
     1     1     2 2   
     2     1    13 1   
     3     1    15 1   
     4     2     7 1   
     5     2    16 1   
     6     3     4 1   
     7     3     7 1   
     8     3    15 2   
     9     4     8 2   
    10     4    12 1   
    11     5     6 1   
    12     5    12 1   
    13     5    46 1   
    14     5    59 1   
    15     6     9 1   
    16     6    60 1   
    17     6    61 1   
    18     8    62 1   
    19     9    58 1   
    20     9    63 1   
    21     9    64 1   
    22    10    46 1   
    23    10    58 1   
    24    10    65 1   
    25    10    66 1   
    26    11    23 1   
    27    11    24 1   
    28    11    67 1   
    29    12    68 1   
    30    13    14 2   
    31    13    49 1   
    32    15    69 1   
    33    16    17 1   
    34    16    45 2   
    35    17    18 ar  
    36    17    44 ar  
    37    18    19 ar  
    38    18    70 1   
    39    19    21 ar  
    40    19    51 1   
    41    20    51 1   
    42    20    71 1   
    43    20    72 1   
    44    20    73 1   
    45    21    43 ar  
    46    21    52 1   
    47    22    23 1   
    48    22    52 1   
    49    22    74 1   
    50    22    75 1   
    51    23    50 2   
    52    24    25 1   
    53    24    76 1   
    54    24    77 1   
    55    25    26 1   
    56    25    78 1   
    57    25    79 1   
    58    26    27 1   
    59    26    80 1   
    60    26    81 1   
    61    27    28 1   
    62    27    82 1   
    63    27    83 1   
    64    28    29 1   
    65    28    84 1   
    66    28    85 1   
    67    29    53 1   
    68    29    86 1   
    69    29    87 1   
    70    30    31 ar  
    71    30    41 ar  
    72    30    53 1   
    73    31    32 ar  
    74    31    88 1   
    75    32    33 ar  
    76    32    89 1   
    77    33    34 ar  
    78    33    90 1   
    79    34    35 1   
    80    34    41 ar  
    81    35    47 1   
    82    35    56 2   
    83    36    37 1   
    84    36    40 1   
    85    36    47 1   
    86    36    91 1   
    87    37    48 1   
    88    37    55 2   
    89    38    39 1   
    90    38    48 1   
    91    38    54 2   
    92    39    40 1   
    93    39    92 1   
    94    39    93 1   
    95    40    94 1   
    96    40    95 1   
    97    41    42 1   
    98    42    47 1   
    99    42    57 2   
   100    43    44 ar  
   101    43    96 1   
   102    44    97 1   
   103    45    49 1   
   104    45    98 1   
   105    46   102 1   
   106    46   103 1   
   107    48   104 1   
   108    49   105 1   
   109    58   106 2   
   110    58   107 2   
   111    99   105 1   
   112   100   105 1   
   113   101   105 1   
@<TRIPOS>SUBSTRUCTURE
     1 7P7         1 TEMP              0 ****  ****    0 ROOT
