@<TRIPOS>MOLECULE
7P7
  107   113     1     0     0
SMALL
No Charge or Current Charge


@<TRIPOS>ATOM
      1 C1          10.4120     2.2840    -0.9160 cc         1 7P7      -0.219600
      2 C2           9.0580     2.2040    -0.7280 cd         1 7P7      -0.081800
      3 C3          10.1810    -0.0550    -0.8580 cd         1 7P7      -0.351900
      4 C4          10.5210    -1.4670    -0.8940 cf         1 7P7       0.704800
      5 C5           9.4250    -3.6030    -0.2520 c6         1 7P7       0.219500
      6 C6           8.7720    -3.2910     1.1240 c6         1 7P7      -0.076400
      7 S            8.5210     0.5180    -0.5780 ss         1 7P7       0.255000
      8 N1          11.7200    -1.8590    -0.7020 n2         1 7P7      -0.840100
      9 C7           8.6490    -4.5520     2.0290 c6         1 7P7      -0.291900
     10 C8           8.4710    -6.0090    -0.3180 c6         1 7P7      -0.291900
     11 N2          -0.6740     1.8290    -0.1090 ns         1 7P7      -0.513900
     12 N            9.5120    -2.3630    -1.0360 nu         1 7P7      -0.897400
     13 C           11.1440     3.5600    -1.0020 c          1 7P7       0.585600
     14 O           12.3530     3.6310    -1.1930 o          1 7P7      -0.544000
     15 C10         11.0400     1.0130    -1.0040 cc         1 7P7      -0.030000
     16 C11          8.2460     3.4000    -0.6050 cd         1 7P7      -0.092400
     17 C12          6.7870     3.3930    -0.3300 ca         1 7P7      -0.031800
     18 C13          6.2090     4.3920     0.4850 ca         1 7P7      -0.169000
     19 C14          4.8200     4.4050     0.7510 ca         1 7P7       0.125100
     20 C15          4.9980     6.4200     2.1840 c3         1 7P7       0.144900
     21 C16          3.9880     3.4140     0.1840 ca         1 7P7       0.113100
     22 C17          1.7050     2.4740    -0.0810 c3         1 7P7       0.071600
     23 C18          0.2510     2.7320     0.3760 c          1 7P7       0.605100
     24 C19         -2.1060     1.8750     0.1900 c3         1 7P7       0.101000
     25 C20         -2.8640     0.7210    -0.4930 c3         1 7P7      -0.095400
     26 C21         -4.3800     0.7410    -0.1980 c3         1 7P7      -0.073400
     27 C22         -5.1430    -0.4150    -0.8810 c3         1 7P7      -0.073400
     28 C23         -6.6600    -0.3950    -0.5880 c3         1 7P7      -0.083400
     29 C24         -7.4190    -1.5490    -1.2690 c3         1 7P7       0.164600
     30 C25         -9.7610    -2.3020    -1.3760 ca         1 7P7       0.221100
     31 C26         -9.4570    -3.4060    -2.2120 ca         1 7P7      -0.194000
     32 C27        -10.4780    -4.2850    -2.6490 ca         1 7P7      -0.052000
     33 C28        -11.8180    -4.0780    -2.2600 ca         1 7P7      -0.088000
     34 C29        -12.0990    -2.9830    -1.4330 ca         1 7P7      -0.100600
     35 C30        -13.3980    -2.5170    -0.8690 c          1 7P7       0.589600
     36 C31        -14.1200    -0.5730     0.6010 c6         1 7P7       0.041700
     37 C32        -13.9100     0.9670     0.4930 c          1 7P7       0.579000
     38 C33        -13.5120     1.2120     2.9060 c          1 7P7       0.588000
     39 C34        -13.4280    -0.3090     3.0700 c6         1 7P7      -0.163400
     40 C35        -14.3160    -1.0750     2.0600 c6         1 7P7      -0.087400
     41 C36        -11.0980    -2.1200    -1.0040 ca         1 7P7      -0.198600
     42 C37        -11.7220    -1.0730    -0.1500 c          1 7P7       0.603600
     43 C38          4.5560     2.4270    -0.6490 ca         1 7P7      -0.170000
     44 C39          5.9370     2.4230    -0.9020 ca         1 7P7      -0.103000
     45 C40          8.9490     4.5990    -0.6100 cc         1 7P7      -0.012400
     46 C9           8.6050    -4.6470    -1.0600 c6         1 7P7      -0.076400
     47 N3         -13.0880    -1.3850    -0.1110 n          1 7P7      -0.396400
     48 N4         -13.8070     1.6760     1.6570 ns         1 7P7      -0.468500
     49 N5          10.3310     4.6990    -0.8250 n          1 7P7      -0.275000
     50 O10         -0.0810     3.6560     1.1100 o          1 7P7      -0.560100
     51 O3           4.2390     5.3680     1.5620 os         1 7P7      -0.310100
     52 O4           2.6300     3.4480     0.4560 os         1 7P7      -0.289100
     53 O5          -8.8060    -1.4180    -0.9230 os         1 7P7      -0.318100
     54 O6         -13.3910     1.9760     3.8490 o          1 7P7      -0.514000
     55 O7         -13.8880     1.5410    -0.5850 o          1 7P7      -0.505000
     56 O8         -14.5040    -3.0120    -1.0310 o          1 7P7      -0.485000
     57 O9         -11.1710    -0.1410     0.4160 o          1 7P7      -0.479000
     58 S1           7.6400    -5.8700     1.2910 s6         1 7P7       1.073000
     59 H1          10.4280    -4.0230    -0.0760 h1         1 7P7       0.090700
     60 H2           9.3730    -2.5350     1.6480 hc         1 7P7       0.067450
     61 H3           7.7800    -2.8430     0.9750 hc         1 7P7       0.067450
     62 H4          12.2790    -1.0270    -0.4880 hn         1 7P7       0.397400
     63 H5           9.6330    -4.9980     2.2220 h1         1 7P7       0.105200
     64 H6           8.1720    -4.3100     2.9870 h1         1 7P7       0.105200
     65 H7           7.8770    -6.7230    -0.9020 h1         1 7P7       0.105200
     66 H8           9.4560    -6.4460    -0.1120 h1         1 7P7       0.105200
     67 H9          -0.3270     1.0910    -0.7100 hn         1 7P7       0.308500
     68 H10          8.6450    -1.9200    -1.3150 hn         1 7P7       0.479000
     69 H11         12.1110     0.9190    -1.1720 ha         1 7P7       0.155000
     70 H12          6.8520     5.1370     0.9400 ha         1 7P7       0.121000
     71 H13          4.3360     7.0660     2.7750 h1         1 7P7       0.041367
     72 H14          5.7580     6.0060     2.8580 h1         1 7P7       0.041367
     73 H15          5.4940     7.0420     1.4290 h1         1 7P7       0.041367
     74 H16          1.9790     1.4630     0.2430 h1         1 7P7       0.046200
     75 H17          1.7140     2.4980    -1.1780 h1         1 7P7       0.046200
     76 H18         -2.2440     1.8140     1.2780 h1         1 7P7       0.058700
     77 H19         -2.5100     2.8360    -0.1550 h1         1 7P7       0.058700
     78 H20         -2.7060     0.7790    -1.5770 hc         1 7P7       0.042700
     79 H21         -2.4430    -0.2340    -0.1550 hc         1 7P7       0.042700
     80 H22         -4.5370     0.6860     0.8870 hc         1 7P7       0.047200
     81 H23         -4.7990     1.6980    -0.5340 hc         1 7P7       0.047200
     82 H24         -4.9850    -0.3600    -1.9650 hc         1 7P7       0.038700
     83 H25         -4.7240    -1.3720    -0.5440 hc         1 7P7       0.038700
     84 H26         -6.8210    -0.4520     0.4960 hc         1 7P7       0.064200
     85 H27         -7.0820     0.5590    -0.9280 hc         1 7P7       0.064200
     86 H28         -7.2820    -1.4870    -2.3560 h1         1 7P7       0.038200
     87 H29         -7.0200    -2.5090    -0.9160 h1         1 7P7       0.038200
     88 H30         -8.4370    -3.5990    -2.5340 ha         1 7P7       0.125000
     89 H31        -10.2290    -5.1270    -3.2920 ha         1 7P7       0.122000
     90 H32        -12.6080    -4.7490    -2.5930 ha         1 7P7       0.143000
     91 H33        -15.0760    -0.7360     0.0820 h1         1 7P7       0.102700
     92 H34        -12.3860    -0.5770     2.8510 hc         1 7P7       0.084700
     93 H35        -13.6180    -0.5860     4.1150 hc         1 7P7       0.084700
     94 H36        -15.3670    -0.9220     2.3430 hc         1 7P7       0.066700
     95 H37        -14.1410    -2.1580     2.1290 hc         1 7P7       0.066700
     96 H38          3.9430     1.6630    -1.1180 ha         1 7P7       0.118000
     97 H39          6.3300     1.6840    -1.5930 ha         1 7P7       0.119000
     98 H40          8.4880     5.5740    -0.4960 h4         1 7P7       0.204000
     99 H41         11.4710     6.1660    -1.8440 h1         1 7P7       0.056033
    100 H42         10.2610     6.8310    -0.7160 h1         1 7P7       0.056033
    101 H43         11.7510     6.0860    -0.0800 h1         1 7P7       0.056033
    102 H44          7.6060    -4.2470    -1.2850 hc         1 7P7       0.067450
    103 H45          9.0930    -4.8140    -2.0300 hc         1 7P7       0.067450
    104 H46        -13.8000     2.6800     1.5570 hn         1 7P7       0.330500
    105 C41         10.9890     6.0250    -0.8690 c3         1 7P7       0.078300
    106 O1           6.2790    -5.3630     1.0800 o          1 7P7      -0.520000
    107 O2           7.8530    -7.1110     2.0450 o          1 7P7      -0.520000
@<TRIPOS>BOND
     1     1     2 2   
     2     1    13 1   
     3     1    15 1   
     4     2     7 1   
     5     2    16 1   
     6     3     4 1   
     7     3     7 1   
     8     3    15 2   
     9     4     8 2   
    10     4    12 1   
    11     5     6 1   
    12     5    12 1   
    13     5    46 1   
    14     5    59 1   
    15     6     9 1   
    16     6    60 1   
    17     6    61 1   
    18     8    62 1   
    19     9    58 1   
    20     9    63 1   
    21     9    64 1   
    22    10    46 1   
    23    10    58 1   
    24    10    65 1   
    25    10    66 1   
    26    11    23 1   
    27    11    24 1   
    28    11    67 1   
    29    12    68 1   
    30    13    14 2   
    31    13    49 1   
    32    15    69 1   
    33    16    17 1   
    34    16    45 2   
    35    17    18 ar  
    36    17    44 ar  
    37    18    19 ar  
    38    18    70 1   
    39    19    21 ar  
    40    19    51 1   
    41    20    51 1   
    42    20    71 1   
    43    20    72 1   
    44    20    73 1   
    45    21    43 ar  
    46    21    52 1   
    47    22    23 1   
    48    22    52 1   
    49    22    74 1   
    50    22    75 1   
    51    23    50 2   
    52    24    25 1   
    53    24    76 1   
    54    24    77 1   
    55    25    26 1   
    56    25    78 1   
    57    25    79 1   
    58    26    27 1   
    59    26    80 1   
    60    26    81 1   
    61    27    28 1   
    62    27    82 1   
    63    27    83 1   
    64    28    29 1   
    65    28    84 1   
    66    28    85 1   
    67    29    53 1   
    68    29    86 1   
    69    29    87 1   
    70    30    31 ar  
    71    30    41 ar  
    72    30    53 1   
    73    31    32 ar  
    74    31    88 1   
    75    32    33 ar  
    76    32    89 1   
    77    33    34 ar  
    78    33    90 1   
    79    34    35 1   
    80    34    41 ar  
    81    35    47 1   
    82    35    56 2   
    83    36    37 1   
    84    36    40 1   
    85    36    47 1   
    86    36    91 1   
    87    37    48 1   
    88    37    55 2   
    89    38    39 1   
    90    38    48 1   
    91    38    54 2   
    92    39    40 1   
    93    39    92 1   
    94    39    93 1   
    95    40    94 1   
    96    40    95 1   
    97    41    42 1   
    98    42    47 1   
    99    42    57 2   
   100    43    44 ar  
   101    43    96 1   
   102    44    97 1   
   103    45    49 1   
   104    45    98 1   
   105    46   102 1   
   106    46   103 1   
   107    48   104 1   
   108    49   105 1   
   109    58   106 2   
   110    58   107 2   
   111    99   105 1   
   112   100   105 1   
   113   101   105 1   
@<TRIPOS>SUBSTRUCTURE
     1 7P7         1 TEMP              0 ****  ****    0 ROOT
