@<TRIPOS>MOLECULE
7PB
   49    52     1     0     0
SMALL
No Charge or Current Charge


@<TRIPOS>ATOM
      1 C11         18.0530    65.0940    32.6990 cx         1 7PB      -0.252700
      2 C12         18.4520    65.6640    31.3510 cx         1 7PB      -0.093900
      3 C19         18.4740    68.2970    40.9710 ca         1 7PB      -0.340000
      4 C24         15.3110    65.3840    44.3230 ca         1 7PB      -0.219000
      5 C10         18.3010    65.9140    33.9460 c          1 7PB       0.642100
      6 C13         16.9910    65.5540    31.7190 cx         1 7PB      -0.093900
      7 C22         16.1880    67.1940    42.9580 ca         1 7PB      -0.179000
      8 C01         16.9950    66.6020    36.0490 ca         1 7PB       0.012000
      9 C02         15.7290    66.4530    36.6450 ca         1 7PB      -0.192000
     10 C03         15.4420    67.0600    37.8770 ca         1 7PB      -0.058000
     11 C04         16.4270    67.8170    38.5290 ca         1 7PB      -0.172000
     12 C05         17.7020    67.9620    37.9580 ca         1 7PB       0.334000
     13 C06         17.9770    67.3680    36.7160 ca         1 7PB      -0.180000
     14 C08         18.9710    69.0370    39.8960 ca         1 7PB       0.403900
     15 C16         20.1160    70.3750    41.3490 ca         1 7PB       0.192900
     16 C18         18.8440    68.7080    42.2530 ca         1 7PB       0.403900
     17 C21         17.3930    67.1650    43.6800 ca         1 7PB       0.341000
     18 C23         15.1500    66.3020    43.2740 ca         1 7PB      -0.050000
     19 C25         16.5120    65.3640    45.0640 ca         1 7PB       0.168100
     20 C26         17.5420    66.2600    44.7400 ca         1 7PB      -0.192000
     21 C28         15.7350    63.5330    46.5230 c3         1 7PB       0.148900
     22 N07         18.6940    68.7210    38.5790 nu         1 7PB      -0.949900
     23 N09         17.2070    65.9650    34.7970 ns         1 7PB      -0.144000
     24 N15         19.8040    70.0710    40.0730 nb         1 7PB      -0.283000
     25 N17         19.6760    69.7390    42.4540 nb         1 7PB      -0.285000
     26 N20         18.4340    68.0480    43.3970 nu         1 7PB      -0.949900
     27 O14         19.3800    66.4580    34.1520 o          1 7PB      -0.584100
     28 O27         16.7250    64.4910    46.1100 os         1 7PB      -0.340100
     29 H1          18.1700    64.0210    32.8300 hc         1 7PB       0.084700
     30 H2          18.8390    64.9760    30.6020 hc         1 7PB       0.083450
     31 H3          18.8910    66.6590    31.3200 hc         1 7PB       0.083450
     32 H4          17.8620    67.4190    40.8150 ha         1 7PB       0.148000
     33 H5          14.4950    64.7040    44.5510 ha         1 7PB       0.119000
     34 H6          16.3980    64.7920    31.2150 hc         1 7PB       0.083450
     35 H7          16.4550    66.4770    31.9280 hc         1 7PB       0.083450
     36 H8          16.0420    67.9180    42.1630 ha         1 7PB       0.126000
     37 H9          14.9580    65.8690    36.1470 ha         1 7PB       0.111000
     38 H10         14.4550    66.9500    38.3230 ha         1 7PB       0.113000
     39 H11         16.1870    68.3060    39.4680 ha         1 7PB       0.127000
     40 H12         18.9640    67.5030    36.2910 ha         1 7PB       0.153000
     41 H13         20.7920    71.2140    41.5030 h5         1 7PB       0.045100
     42 H14         14.2190    66.3290    42.7090 ha         1 7PB       0.112000
     43 H15         18.4640    66.2390    45.3110 ha         1 7PB       0.132000
     44 H16         16.1080    62.9410    47.3690 h1         1 7PB       0.041700
     45 H17         14.8130    64.0360    46.8420 h1         1 7PB       0.041700
     46 H18         15.4950    62.8420    45.7050 h1         1 7PB       0.041700
     47 H19         19.3730    69.1200    37.9330 hn         1 7PB       0.516000
     48 H20         16.4050    65.4510    34.4590 hn         1 7PB       0.152000
     49 H21         19.0380    68.2420    44.1950 hn         1 7PB       0.513000
@<TRIPOS>BOND
     1     1     2 1   
     2     1     5 1   
     3     1     6 1   
     4     1    29 1   
     5     2     6 1   
     6     2    30 1   
     7     2    31 1   
     8     3    14 ar  
     9     3    16 ar  
    10     3    32 1   
    11     4    18 ar  
    12     4    19 ar  
    13     4    33 1   
    14     5    23 1   
    15     5    27 2   
    16     6    34 1   
    17     6    35 1   
    18     7    17 ar  
    19     7    18 ar  
    20     7    36 1   
    21     8     9 ar  
    22     8    13 ar  
    23     8    23 1   
    24     9    10 ar  
    25     9    37 1   
    26    10    11 ar  
    27    10    38 1   
    28    11    12 ar  
    29    11    39 1   
    30    12    13 ar  
    31    12    22 1   
    32    13    40 1   
    33    14    22 1   
    34    14    24 ar  
    35    15    24 ar  
    36    15    25 ar  
    37    15    41 1   
    38    16    25 ar  
    39    16    26 1   
    40    17    20 ar  
    41    17    26 1   
    42    18    42 1   
    43    19    20 ar  
    44    19    28 1   
    45    20    43 1   
    46    21    28 1   
    47    21    44 1   
    48    21    45 1   
    49    21    46 1   
    50    22    47 1   
    51    23    48 1   
    52    26    49 1   
@<TRIPOS>SUBSTRUCTURE
     1 7PB         1 TEMP              0 ****  ****    0 ROOT
