@<TRIPOS>MOLECULE
7PB
   49    52     1     0     0
SMALL
bcc


@<TRIPOS>ATOM
      1 C11         17.5900    65.2690    32.9350 cx         1 7PB      -0.252700
      2 C12         18.7870    64.6160    32.2930 cx         1 7PB      -0.093900
      3 C19         18.2850    68.4640    40.9130 ca         1 7PB      -0.488600
      4 C24         15.5000    65.2660    44.0480 ca         1 7PB      -0.237000
      5 C10         17.8140    66.0920    34.1530 c          1 7PB       0.709100
      6 C13         18.1470    65.7780    31.6310 cx         1 7PB      -0.093900
      7 C22         16.1840    67.2790    42.8830 ca         1 7PB      -0.197000
      8 C01         16.6290    66.7140    36.2580 ca         1 7PB       0.104600
      9 C02         15.4160    66.5250    36.9270 ca         1 7PB      -0.210000
     10 C03         15.1880    67.1620    38.1320 ca         1 7PB      -0.076000
     11 C04         16.1420    67.9930    38.7010 ca         1 7PB      -0.190000
     12 C05         17.3620    68.1590    38.0510 ca         1 7PB       0.195600
     13 C06         17.6070    67.5220    36.8340 ca         1 7PB      -0.198000
     14 C08         18.7420    69.2150    39.8330 ca         1 7PB       0.732200
     15 C16         20.0520    70.4170    41.2230 ca         1 7PB       0.718900
     16 C18         18.7660    68.8220    42.1700 ca         1 7PB       0.732200
     17 C21         17.4270    67.2220    43.5190 ca         1 7PB       0.202600
     18 C23         15.2490    66.2950    43.1480 ca         1 7PB      -0.068000
     19 C25         16.7310    65.2280    44.6990 ca         1 7PB       0.168100
     20 C26         17.6930    66.2000    44.4220 ca         1 7PB      -0.210000
     21 C28         16.1690    63.2670    45.9100 c3         1 7PB       0.125700
     22 N07         18.3600    69.0040    38.5440 nu         1 7PB      -0.756300
     23 N09         16.7820    66.0510    35.0380 ns         1 7PB      -0.470100
     24 N15         19.6420    70.1990    39.9890 nb         1 7PB      -0.809000
     25 N17         19.6650    69.8070    42.3260 nb         1 7PB      -0.811000
     26 N20         18.4070    68.2000    43.3250 nu         1 7PB      -0.756300
     27 O14         18.8330    66.7380    34.3270 o          1 7PB      -0.584100
     28 O27         17.0900    64.2930    45.5960 os         1 7PB      -0.316900
     29 H1          16.6540    64.7250    32.8820 hc         1 7PB       0.084700
     30 H2          18.6340    63.6300    31.8740 hc         1 7PB       0.083450
     31 H3          19.7470    64.7630    32.7690 hc         1 7PB       0.083450
     32 H4          17.6210    67.6260    40.7790 ha         1 7PB       0.166000
     33 H5          14.7360    64.5230    44.2310 ha         1 7PB       0.137000
     34 H6          17.5460    65.6070    30.7480 hc         1 7PB       0.083450
     35 H7          18.6660    66.7270    31.6500 hc         1 7PB       0.083450
     36 H8          15.9390    68.0910    42.2120 ha         1 7PB       0.144000
     37 H9          14.6520    65.8910    36.4950 ha         1 7PB       0.129000
     38 H10         14.2380    67.0260    38.6320 ha         1 7PB       0.131000
     39 H11         15.9190    68.5180    39.6190 ha         1 7PB       0.145000
     40 H12         18.5600    67.6660    36.3520 ha         1 7PB       0.171000
     41 H13         20.7940    71.2000    41.3470 h5         1 7PB       0.045100
     42 H14         14.2870    66.3350    42.6540 ha         1 7PB       0.130000
     43 H15         18.6550    66.1520    44.9190 ha         1 7PB       0.150000
     44 H16         16.6580    62.6260    46.6390 h1         1 7PB       0.041700
     45 H17         15.2500    63.6630    46.3510 h1         1 7PB       0.041700
     46 H18         15.9090    62.6680    45.0330 h1         1 7PB       0.041700
     47 H19         18.9330    69.4770    37.8610 hn         1 7PB       0.460800
     48 H20         15.9930    65.4810    34.7710 hn         1 7PB       0.318500
     49 H21         18.9950    68.4180    44.1150 hn         1 7PB       0.457800
@<TRIPOS>BOND
     1     1     2 1   
     2     1     5 1   
     3     1     6 1   
     4     1    29 1   
     5     2     6 1   
     6     2    30 1   
     7     2    31 1   
     8     3    14 ar  
     9     3    16 ar  
    10     3    32 1   
    11     4    18 ar  
    12     4    19 ar  
    13     4    33 1   
    14     5    23 1   
    15     5    27 2   
    16     6    34 1   
    17     6    35 1   
    18     7    17 ar  
    19     7    18 ar  
    20     7    36 1   
    21     8     9 ar  
    22     8    13 ar  
    23     8    23 1   
    24     9    10 ar  
    25     9    37 1   
    26    10    11 ar  
    27    10    38 1   
    28    11    12 ar  
    29    11    39 1   
    30    12    13 ar  
    31    12    22 1   
    32    13    40 1   
    33    14    22 1   
    34    14    24 ar  
    35    15    24 ar  
    36    15    25 ar  
    37    15    41 1   
    38    16    25 ar  
    39    16    26 1   
    40    17    20 ar  
    41    17    26 1   
    42    18    42 1   
    43    19    20 ar  
    44    19    28 1   
    45    20    43 1   
    46    21    28 1   
    47    21    44 1   
    48    21    45 1   
    49    21    46 1   
    50    22    47 1   
    51    23    48 1   
    52    26    49 1   
@<TRIPOS>SUBSTRUCTURE
     1 7PB         1 TEMP              0 ****  ****    0 ROOT
