@<TRIPOS>MOLECULE
7PC
   38    40     1     0     0
SMALL
abcg2


@<TRIPOS>ATOM
      1 CL2         -3.6740    -2.2230     0.3740 cl         1 7PC      -0.181000
      2 C15         -3.3220    -0.5490     0.1220 ca         1 7PC       0.087000
      3 C16         -4.3410     0.3310    -0.1990 ca         1 7PC      -0.055000
      4 C14         -2.0100    -0.1070     0.2550 ca         1 7PC       0.125100
      5 C19         -1.7330     1.2390     0.0630 ca         1 7PC      -0.165000
      6 C22         -2.7570     2.1160    -0.2610 ca         1 7PC      -0.082000
      7 C17         -4.0700     1.6790    -0.4040 ca         1 7PC      -0.104300
      8 C29         -5.1600     2.6430    -0.8010 c3         1 7PC       0.202100
      9 N30         -6.4590     2.2410    -0.2960 n8         1 7PC      -1.000200
     10 O13         -1.0740    -1.0320     0.6060 os         1 7PC      -0.245200
     11 C2           0.2500    -0.7590     0.3680 ca         1 7PC       0.004100
     12 C1           1.0920    -0.6390     1.4740 ca         1 7PC       0.140100
     13 O22          0.6390    -0.7390     2.7360 oh         1 7PC      -0.527100
     14 C6           2.4450    -0.4070     1.2660 ca         1 7PC      -0.104000
     15 C5           2.9590    -0.2700    -0.0200 cp         1 7PC      -0.110500
     16 C4           2.1000    -0.3990    -1.1130 ca         1 7PC      -0.127000
     17 C3           0.7530    -0.6470    -0.9160 ca         1 7PC      -0.093000
     18 C7           4.4040    -0.0050    -0.2030 cp         1 7PC       0.404500
     19 N23          5.2080    -0.3390     0.8050 nb         1 7PC      -0.669000
     20 C24          6.5100    -0.1200     0.6890 ca         1 7PC       0.343900
     21 C25          7.0930     0.4440    -0.4360 ca         1 7PC      -0.162000
     22 C26          6.2610     0.8040    -1.4840 ca         1 7PC      -0.073000
     23 C27          4.8990     0.5820    -1.3680 ca         1 7PC      -0.151000
     24 H16         -5.3560    -0.0340    -0.2900 ha         1 7PC       0.151000
     25 H19         -0.7230     1.6130     0.1730 ha         1 7PC       0.132000
     26 H22         -2.5220     3.1640    -0.3990 ha         1 7PC       0.114000
     27 H291        -4.8540     3.6530    -0.4980 h1         1 7PC       0.036200
     28 H292        -5.2190     2.6660    -1.8940 h1         1 7PC       0.036200
     29 H301        -6.4950     2.3850     0.7050 hn         1 7PC       0.399000
     30 H302        -7.1710     2.8410    -0.6910 hn         1 7PC       0.399000
     31 HO22        -0.3020    -0.9550     2.7430 ho         1 7PC       0.484000
     32 H6           3.0990    -0.3160     2.1230 ha         1 7PC       0.153000
     33 H4           2.4740    -0.3310    -2.1260 ha         1 7PC       0.119000
     34 H3           0.0890    -0.7570    -1.7640 ha         1 7PC       0.130000
     35 H24          7.1230    -0.4100     1.5350 h4         1 7PC       0.021100
     36 H25          8.1620     0.5970    -0.4810 ha         1 7PC       0.125000
     37 H26          6.6630     1.2590    -2.3790 ha         1 7PC       0.120000
     38 H27          4.2350     0.8790    -2.1690 ha         1 7PC       0.124000
@<TRIPOS>BOND
     1     1     2 1   
     2     2     3 ar  
     3     2     4 ar  
     4     3     7 ar  
     5     3    24 1   
     6     4     5 ar  
     7     4    10 1   
     8     5     6 ar  
     9     5    25 1   
    10     6     7 ar  
    11     6    26 1   
    12     7     8 1   
    13     8     9 1   
    14     8    27 1   
    15     8    28 1   
    16     9    29 1   
    17     9    30 1   
    18    10    11 1   
    19    11    12 ar  
    20    11    17 ar  
    21    12    13 1   
    22    12    14 ar  
    23    13    31 1   
    24    14    15 ar  
    25    14    32 1   
    26    15    16 ar  
    27    15    18 1   
    28    16    17 ar  
    29    16    33 1   
    30    17    34 1   
    31    18    19 ar  
    32    18    23 ar  
    33    19    20 ar  
    34    20    21 ar  
    35    20    35 1   
    36    21    22 ar  
    37    21    36 1   
    38    22    23 ar  
    39    22    37 1   
    40    23    38 1   
@<TRIPOS>SUBSTRUCTURE
     1 7PC         1 TEMP              0 ****  ****    0 ROOT
