@<TRIPOS>MOLECULE
7PC
   38    40     1     0     0
SMALL
No Charge or Current Charge


@<TRIPOS>ATOM
      1 Cl2         -3.5180    -2.3840     0.2280 cl         1 7PC      -0.181000
      2 C15         -3.3020    -0.6410     0.0610 ca         1 7PC       0.087000
      3 C16         -4.3440     0.1310    -0.4820 ca         1 7PC      -0.055000
      4 C14         -2.0990    -0.0230     0.4570 ca         1 7PC       0.125100
      5 C19         -1.9550     1.3720     0.3270 ca         1 7PC      -0.165000
      6 C22         -2.9990     2.1420    -0.2160 ca         1 7PC      -0.082000
      7 C17         -4.1980     1.5260    -0.6260 ca         1 7PC      -0.104300
      8 C29         -5.3290     2.3550    -1.2180 c3         1 7PC       0.202100
      9 N30         -6.4100     2.5590    -0.2390 n8         1 7PC      -1.000200
     10 O13         -1.0840    -0.7840     1.0010 os         1 7PC      -0.245200
     11 C2           0.2490    -0.5840     0.7020 ca         1 7PC       0.004100
     12 C1           1.2200    -0.8000     1.6970 ca         1 7PC       0.140100
     13 O22          0.8400    -1.1860     2.9510 oh         1 7PC      -0.527100
     14 C6           2.5810    -0.6150     1.4070 ca         1 7PC      -0.104000
     15 C5           3.0180    -0.2120     0.1130 cp         1 7PC      -0.110500
     16 C4           2.0170    -0.0200    -0.8790 ca         1 7PC      -0.127000
     17 C3           0.6530    -0.2060    -0.5920 ca         1 7PC      -0.093000
     18 C7           4.4820    -0.0120    -0.1910 cp         1 7PC       0.404500
     19 N23          5.3660    -0.6380     0.6240 nb         1 7PC      -0.669000
     20 C24          6.6910    -0.4950     0.3950 ca         1 7PC       0.343900
     21 C25          7.2030     0.2850    -0.6540 ca         1 7PC      -0.162000
     22 C26          6.3090     0.9530    -1.5040 ca         1 7PC      -0.073000
     23 C27          4.9340     0.8010    -1.2640 ca         1 7PC      -0.151000
     24 H16         -5.2680    -0.3530    -0.7880 ha         1 7PC       0.151000
     25 H19         -1.0380     1.8600     0.6480 ha         1 7PC       0.132000
     26 H22         -2.8760     3.2190    -0.3160 ha         1 7PC       0.114000
     27 H291        -4.9480     3.3350    -1.5380 h1         1 7PC       0.036200
     28 H292        -5.7390     1.8440    -2.1010 h1         1 7PC       0.036200
     29 H301        -6.0350     3.0890     0.5560 hn         1 7PC       0.399000
     30 H302        -7.1100     3.1920    -0.6440 hn         1 7PC       0.399000
     31 HO22        -0.1390    -1.2680     2.9430 ho         1 7PC       0.484000
     32 H6           3.3050    -0.7800     2.2010 ha         1 7PC       0.153000
     33 H4           2.2930     0.2580    -1.8930 ha         1 7PC       0.119000
     34 H3          -0.0840    -0.0630    -1.3790 ha         1 7PC       0.130000
     35 H24          7.3620    -1.0210     1.0740 h4         1 7PC       0.021100
     36 H25          8.2760     0.3710    -0.7960 ha         1 7PC       0.125000
     37 H26          6.6700     1.5730    -2.3210 ha         1 7PC       0.120000
     38 H27          4.2250     1.3220    -1.8990 ha         1 7PC       0.124000
@<TRIPOS>BOND
     1     1     2 1   
     2     2     3 ar  
     3     2     4 ar  
     4     3     7 ar  
     5     3    24 1   
     6     4     5 ar  
     7     4    10 1   
     8     5     6 ar  
     9     5    25 1   
    10     6     7 ar  
    11     6    26 1   
    12     7     8 1   
    13     8     9 1   
    14     8    27 1   
    15     8    28 1   
    16     9    29 1   
    17     9    30 1   
    18    10    11 1   
    19    11    12 ar  
    20    11    17 ar  
    21    12    13 1   
    22    12    14 ar  
    23    13    31 1   
    24    14    15 ar  
    25    14    32 1   
    26    15    16 ar  
    27    15    18 1   
    28    16    17 ar  
    29    16    33 1   
    30    17    34 1   
    31    18    19 ar  
    32    18    23 ar  
    33    19    20 ar  
    34    20    21 ar  
    35    20    35 1   
    36    21    22 ar  
    37    21    36 1   
    38    22    23 ar  
    39    22    37 1   
    40    23    38 1   
@<TRIPOS>SUBSTRUCTURE
     1 7PC         1 TEMP              0 ****  ****    0 ROOT
