@<TRIPOS>MOLECULE
7PD
   18    19     1     0     0
SMALL
No Charge or Current Charge


@<TRIPOS>ATOM
      1 C1         -22.3910    -6.5860   -10.1140 cc         1 7PD       0.301200
      2 C2         -22.3850    -4.2530   -10.0670 cd         1 7PD      -0.180600
      3 C3         -22.8800    -4.2840   -11.3780 cc         1 7PD       0.368200
      4 C4         -22.9140    -6.6750   -11.5000 c          1 7PD       0.442700
      5 C5         -22.1550    -2.9220    -9.4450 c          1 7PD       0.616200
      6 C6         -22.9330    -2.0460   -11.4870 cd         1 7PD       0.780800
      7 N7         -22.1270    -5.4800    -9.4000 nd         1 7PD      -0.434300
      8 N8         -23.1620    -3.1610   -12.1100 nc         1 7PD      -0.766300
      9 N9         -23.1240    -5.4460   -12.0420 ns         1 7PD      -0.365100
     10 N10        -22.4680    -1.8860   -10.2510 ns         1 7PD      -0.454400
     11 N11        -23.2070    -0.9640   -12.1820 nv         1 7PD      -1.047200
     12 O12        -23.1430    -7.7070   -12.1190 o          1 7PD      -0.524000
     13 O13        -21.7240    -2.7470    -8.3150 o          1 7PD      -0.498000
     14 H1         -22.2080    -7.5400    -9.6400 h4         1 7PD       0.057800
     15 H2         -23.4800    -5.4060   -12.9860 hn         1 7PD       0.339500
     16 H3         -22.3080    -0.9630    -9.8850 hn         1 7PD       0.328500
     17 H4         -23.7190    -1.1790   -13.0280 hn         1 7PD       0.517500
     18 H5         -23.5640    -0.1710   -11.6650 hn         1 7PD       0.517500
@<TRIPOS>BOND
     1     1     4 1   
     2     1     7 2   
     3     1    14 1   
     4     2     3 2   
     5     2     5 1   
     6     2     7 1   
     7     3     8 1   
     8     3     9 1   
     9     4     9 1   
    10     4    12 2   
    11     5    10 1   
    12     5    13 2   
    13     6     8 2   
    14     6    10 1   
    15     6    11 1   
    16     9    15 1   
    17    10    16 1   
    18    11    17 1   
    19    11    18 1   
@<TRIPOS>SUBSTRUCTURE
     1 7PD         1 TEMP              0 ****  ****    0 ROOT
