@<TRIPOS>MOLECULE
7PD
   18    19     1     0     0
SMALL
abcg2


@<TRIPOS>ATOM
      1 C1         -22.3310    -6.5760   -10.0850 cc         1 7PD       0.301200
      2 C2         -22.4190    -4.2960   -10.1270 cd         1 7PD      -0.180600
      3 C3         -22.9360    -4.2760   -11.4200 cc         1 7PD       0.368200
      4 C4         -22.8650    -6.6920   -11.4400 c          1 7PD       0.442700
      5 C5         -22.1890    -3.0360    -9.4660 c          1 7PD       0.616200
      6 C6         -23.0430    -2.0310   -11.5110 cd         1 7PD       0.780800
      7 N7         -22.1290    -5.4540    -9.4890 nd         1 7PD      -0.434300
      8 N8         -23.2510    -3.1830   -12.1140 nc         1 7PD      -0.766300
      9 N9         -23.1380    -5.4730   -12.0230 ns         1 7PD      -0.365100
     10 N10        -22.5360    -1.9430   -10.2550 ns         1 7PD      -0.454400
     11 N11        -23.3360    -0.9020   -12.1420 nv         1 7PD      -1.047200
     12 O12        -23.0590    -7.7440   -12.0230 o          1 7PD      -0.524000
     13 O13        -21.7450    -2.8730    -8.3460 o          1 7PD      -0.498000
     14 H1         -22.0970    -7.4980    -9.5650 h4         1 7PD       0.057800
     15 H2         -23.5160    -5.4680   -12.9640 hn         1 7PD       0.339500
     16 H3         -22.3910    -1.0290    -9.8450 hn         1 7PD       0.328500
     17 H4         -23.7150    -0.9430   -13.0720 hn         1 7PD       0.517500
     18 H5         -23.1970     0.0030   -11.7260 hn         1 7PD       0.517500
@<TRIPOS>BOND
     1     1     4 1   
     2     1     7 2   
     3     1    14 1   
     4     2     3 2   
     5     2     5 1   
     6     2     7 1   
     7     3     8 1   
     8     3     9 1   
     9     4     9 1   
    10     4    12 2   
    11     5    10 1   
    12     5    13 2   
    13     6     8 2   
    14     6    10 1   
    15     6    11 1   
    16     9    15 1   
    17    10    16 1   
    18    11    17 1   
    19    11    18 1   
@<TRIPOS>SUBSTRUCTURE
     1 7PD         1 TEMP              0 ****  ****    0 ROOT
