@<TRIPOS>MOLECULE
7PE
   51    50     1     0     0
SMALL
No Charge or Current Charge


@<TRIPOS>ATOM
      1 C21          9.2830    -0.5040    -1.3750 c3         1 7PE      -0.091100
      2 C20          8.4390    -1.1520    -0.2670 c3         1 7PE       0.161600
      3 O19          7.4710    -0.1840     0.1670 os         1 7PE      -0.448000
      4 C18          6.5930    -0.6470     1.2130 c3         1 7PE       0.162600
      5 C17          5.6000     0.4830     1.5780 c3         1 7PE       0.161600
      6 O16          4.6470     0.6370     0.5070 os         1 7PE      -0.434000
      7 C15          3.6670     1.6720     0.7240 c3         1 7PE       0.161600
      8 C14          2.7060     1.7200    -0.4880 c3         1 7PE       0.162600
      9 O13          1.8510     0.5600    -0.4580 os         1 7PE      -0.435000
     10 C12          0.9110     0.4830    -1.5480 c3         1 7PE       0.161600
     11 C11          0.0540    -0.7950    -1.3870 c3         1 7PE       0.162600
     12 O10         -0.8600    -0.6130    -0.2860 os         1 7PE      -0.436000
     13 C9          -1.7130    -1.7460    -0.0250 c3         1 7PE       0.161600
     14 C8          -2.6450    -1.4140     1.1640 c3         1 7PE       0.162600
     15 O7          -3.6330    -0.4560     0.7350 os         1 7PE      -0.437000
     16 C6          -4.5600    -0.0530     1.7640 c3         1 7PE       0.162600
     17 C5          -5.5650     0.9620     1.1690 c3         1 7PE       0.161600
     18 O4          -6.4700     0.2700     0.2850 os         1 7PE      -0.435000
     19 C3          -7.4520     1.1160    -0.3450 c3         1 7PE       0.160600
     20 C2          -8.3640     0.2520    -1.2570 c3         1 7PE       0.163600
     21 O1          -9.1960    -0.6400    -0.4880 oh         1 7PE      -0.709000
     22 H211        10.0380    -1.2100    -1.7380 hc         1 7PE       0.042367
     23 H212         8.6510    -0.2110    -2.2220 hc         1 7PE       0.042367
     24 H213         9.7990     0.3870    -0.9970 hc         1 7PE       0.042367
     25 H201         7.9430    -2.0490    -0.6610 h1         1 7PE       0.016700
     26 H202         9.0910    -1.4500     0.5650 h1         1 7PE       0.016700
     27 H181         6.0350    -1.5370     0.8960 h1         1 7PE       0.027700
     28 H182         7.1740    -0.9080     2.1070 h1         1 7PE       0.027700
     29 H171         5.0840     0.2140     2.5080 h1         1 7PE       0.026200
     30 H172         6.1520     1.4160     1.7510 h1         1 7PE       0.026200
     31 H151         3.0930     1.4860     1.6410 h1         1 7PE       0.027200
     32 H152         4.1620     2.6470     0.8220 h1         1 7PE       0.027200
     33 H141         2.1050     2.6370    -0.4270 h1         1 7PE       0.028200
     34 H142         3.2900     1.7560    -1.4180 h1         1 7PE       0.028200
     35 H121         0.2560     1.3640    -1.5680 h1         1 7PE       0.027700
     36 H122         1.4450     0.4320    -2.5060 h1         1 7PE       0.027700
     37 H111        -0.5030    -0.9680    -2.3170 h1         1 7PE       0.028200
     38 H112         0.7100    -1.6590    -1.2160 h1         1 7PE       0.028200
     39 H91         -2.3170    -1.9970    -0.9070 h1         1 7PE       0.028200
     40 H92         -1.1070    -2.6240     0.2340 h1         1 7PE       0.028200
     41 H81         -3.1330    -2.3380     1.5000 h1         1 7PE       0.028200
     42 H82         -2.0490    -1.0190     1.9980 h1         1 7PE       0.028200
     43 H61         -5.1050    -0.9180     2.1640 h1         1 7PE       0.028700
     44 H62         -4.0220     0.4250     2.5920 h1         1 7PE       0.028700
     45 H51         -6.1220     1.4310     1.9910 h1         1 7PE       0.028200
     46 H52         -5.0180     1.7500     0.6350 h1         1 7PE       0.028200
     47 H31         -8.0670     1.6310     0.4050 h1         1 7PE       0.025700
     48 H32         -6.9570     1.8790    -0.9610 h1         1 7PE       0.025700
     49 H21         -8.9930     0.9250    -1.8550 h1         1 7PE       0.024700
     50 H22         -7.7350    -0.3160    -1.9560 h1         1 7PE       0.024700
     51 HO1         -9.6960    -1.1920    -1.1340 ho         1 7PE       0.499000
@<TRIPOS>BOND
     1     1     2 1   
     2     1    22 1   
     3     1    23 1   
     4     1    24 1   
     5     2     3 1   
     6     2    25 1   
     7     2    26 1   
     8     3     4 1   
     9     4     5 1   
    10     4    27 1   
    11     4    28 1   
    12     5     6 1   
    13     5    29 1   
    14     5    30 1   
    15     6     7 1   
    16     7     8 1   
    17     7    31 1   
    18     7    32 1   
    19     8     9 1   
    20     8    33 1   
    21     8    34 1   
    22     9    10 1   
    23    10    11 1   
    24    10    35 1   
    25    10    36 1   
    26    11    12 1   
    27    11    37 1   
    28    11    38 1   
    29    12    13 1   
    30    13    14 1   
    31    13    39 1   
    32    13    40 1   
    33    14    15 1   
    34    14    41 1   
    35    14    42 1   
    36    15    16 1   
    37    16    17 1   
    38    16    43 1   
    39    16    44 1   
    40    17    18 1   
    41    17    45 1   
    42    17    46 1   
    43    18    19 1   
    44    19    20 1   
    45    19    47 1   
    46    19    48 1   
    47    20    21 1   
    48    20    49 1   
    49    20    50 1   
    50    21    51 1   
@<TRIPOS>SUBSTRUCTURE
     1 7PE         1 TEMP              0 ****  ****    0 ROOT
