@<TRIPOS>MOLECULE
7PE
   51    50     1     0     0
SMALL
abcg2


@<TRIPOS>ATOM
      1 C21          8.7620    -1.0090    -0.9020 c3         1 7PE      -0.091100
      2 C20          7.8800    -1.1650     0.3160 c3         1 7PE       0.161600
      3 O19          6.9490    -0.1070     0.3570 os         1 7PE      -0.448000
      4 C18          6.0880    -0.1880     1.4630 c3         1 7PE       0.162600
      5 C17          5.1350     0.9790     1.4600 c3         1 7PE       0.161600
      6 O16          4.2860     0.9010     0.3430 os         1 7PE      -0.434000
      7 C15          3.3460     1.9430     0.3080 c3         1 7PE       0.161600
      8 C14          2.4810     1.8130    -0.9190 c3         1 7PE       0.162600
      9 O13          1.7100     0.6410    -0.8360 os         1 7PE      -0.435000
     10 C12          0.8650     0.4700    -1.9450 c3         1 7PE       0.161600
     11 C11          0.0950    -0.8180    -1.8080 c3         1 7PE       0.162600
     12 O10         -0.7600    -0.7430    -0.6960 os         1 7PE      -0.436000
     13 C9          -1.5270    -1.9070    -0.5200 c3         1 7PE       0.161600
     14 C8          -2.3590    -1.7830     0.7300 c3         1 7PE       0.162600
     15 O7          -3.2970    -0.7490     0.5750 os         1 7PE      -0.437000
     16 C6          -4.0750    -0.5400     1.7250 c3         1 7PE       0.162600
     17 C5          -5.0660     0.5670     1.4740 c3         1 7PE       0.161600
     18 O4          -5.9940     0.1630     0.5000 os         1 7PE      -0.435000
     19 C3          -6.9230     1.1700     0.1860 c3         1 7PE       0.160600
     20 C2          -7.8820     0.6790    -0.8670 c3         1 7PE       0.163600
     21 O1          -8.6650    -0.3690    -0.3450 oh         1 7PE      -0.709000
     22 H211         9.4830    -1.8250    -0.9420 hc         1 7PE       0.042367
     23 H212         8.1780    -1.0340    -1.8230 hc         1 7PE       0.042367
     24 H213         9.3190    -0.0720    -0.8740 hc         1 7PE       0.042367
     25 H201         7.3590    -2.1320     0.2840 h1         1 7PE       0.016700
     26 H202         8.4940    -1.1700     1.2270 h1         1 7PE       0.016700
     27 H181         5.5240    -1.1330     1.4560 h1         1 7PE       0.027700
     28 H182         6.6510    -0.1650     2.4070 h1         1 7PE       0.027700
     29 H171         4.5600     0.9520     2.3960 h1         1 7PE       0.026200
     30 H172         5.6970     1.9240     1.4610 h1         1 7PE       0.026200
     31 H151         2.7190     1.9380     1.2110 h1         1 7PE       0.027200
     32 H152         3.8420     2.9230     0.2730 h1         1 7PE       0.027200
     33 H141         1.8410     2.7050    -0.9800 h1         1 7PE       0.028200
     34 H142         3.1070     1.8100    -1.8230 h1         1 7PE       0.028200
     35 H121         0.1670     1.3140    -2.0420 h1         1 7PE       0.027700
     36 H122         1.4420     0.4260    -2.8800 h1         1 7PE       0.027700
     37 H111        -0.4710    -0.9750    -2.7360 h1         1 7PE       0.028200
     38 H112         0.7900    -1.6650    -1.7130 h1         1 7PE       0.028200
     39 H91         -2.1770    -2.0860    -1.3890 h1         1 7PE       0.028200
     40 H92         -0.8850    -2.7920    -0.4160 h1         1 7PE       0.028200
     41 H81         -2.8560    -2.7470     0.9080 h1         1 7PE       0.028200
     42 H82         -1.7060    -1.5980     1.5950 h1         1 7PE       0.028200
     43 H61         -4.6070    -1.4580     2.0170 h1         1 7PE       0.028700
     44 H62         -3.4480    -0.2520     2.5800 h1         1 7PE       0.028700
     45 H51         -5.5650     0.8030     2.4240 h1         1 7PE       0.028200
     46 H52         -4.5360     1.4790     1.1600 h1         1 7PE       0.028200
     47 H31         -7.4790     1.4850     1.0820 h1         1 7PE       0.025700
     48 H32         -6.4170     2.0640    -0.2030 h1         1 7PE       0.025700
     49 H21         -8.4960     1.5370    -1.1720 h1         1 7PE       0.024700
     50 H22         -7.3160     0.3630    -1.7540 h1         1 7PE       0.024700
     51 HO1         -9.2960    -0.6330    -1.0210 ho         1 7PE       0.499000
@<TRIPOS>BOND
     1     1     2 1   
     2     1    22 1   
     3     1    23 1   
     4     1    24 1   
     5     2     3 1   
     6     2    25 1   
     7     2    26 1   
     8     3     4 1   
     9     4     5 1   
    10     4    27 1   
    11     4    28 1   
    12     5     6 1   
    13     5    29 1   
    14     5    30 1   
    15     6     7 1   
    16     7     8 1   
    17     7    31 1   
    18     7    32 1   
    19     8     9 1   
    20     8    33 1   
    21     8    34 1   
    22     9    10 1   
    23    10    11 1   
    24    10    35 1   
    25    10    36 1   
    26    11    12 1   
    27    11    37 1   
    28    11    38 1   
    29    12    13 1   
    30    13    14 1   
    31    13    39 1   
    32    13    40 1   
    33    14    15 1   
    34    14    41 1   
    35    14    42 1   
    36    15    16 1   
    37    16    17 1   
    38    16    43 1   
    39    16    44 1   
    40    17    18 1   
    41    17    45 1   
    42    17    46 1   
    43    18    19 1   
    44    19    20 1   
    45    19    47 1   
    46    19    48 1   
    47    20    21 1   
    48    20    49 1   
    49    20    50 1   
    50    21    51 1   
@<TRIPOS>SUBSTRUCTURE
     1 7PE         1 TEMP              0 ****  ****    0 ROOT
