@<TRIPOS>MOLECULE
7PF
   37    40     1     0     0
SMALL
abcg2


@<TRIPOS>ATOM
      1 C1          24.3110    23.8640    19.4970 c5         1 7PF      -0.058400
      2 C2          24.0580    23.1480    18.1540 c5         1 7PF      -0.051000
      3 C15         25.3020    23.1660    17.2650 c3         1 7PF      -0.081100
      4 C14         22.8940    23.7900    17.3860 c3         1 7PF      -0.081100
      5 C7          22.0590    23.9190    20.7490 c2         1 7PF      -0.249200
      6 C12         20.7120    20.7110    20.4550 c6         1 7PF       0.180600
      7 C10         23.5530    20.6820    22.2730 cx         1 7PF       0.092600
      8 C3          23.7240    21.7150    18.6150 c5         1 7PF      -0.060400
      9 C13         19.5630    23.7040    20.3570 c          1 7PF       0.706200
     10 C11         22.6620    19.3570    20.3180 c          1 7PF       0.672100
     11 C6          20.9940    23.2220    20.3520 ce         1 7PF      -0.154400
     12 C8          23.3670    23.2200    20.5380 c5         1 7PF      -0.022500
     13 C5          21.3990    21.8860    19.7730 c5         1 7PF      -0.042500
     14 C9          23.2840    20.6330    20.8280 cx         1 7PF       0.000000
     15 C4          22.9530    21.8310    19.9500 c5         1 7PF      -0.043000
     16 O4          19.2910    24.7390    21.0180 o          1 7PF      -0.721000
     17 O2          23.2530    18.3240    20.1140 o          1 7PF      -0.513000
     18 O5          18.7490    23.0270    19.6710 o          1 7PF      -0.721000
     19 O3          21.3490    19.4530    20.0780 os         1 7PF      -0.445100
     20 O1          24.6110    20.5030    21.3150 op         1 7PF      -0.424000
     21 H1          25.3450    23.6870    19.8030 hc         1 7PF       0.037700
     22 H2          24.1720    24.9450    19.4240 hc         1 7PF       0.037700
     23 H3          26.1550    22.7150    17.7770 hc         1 7PF       0.032533
     24 H4          25.1270    22.6100    16.3400 hc         1 7PF       0.032533
     25 H5          25.5690    24.1900    16.9930 hc         1 7PF       0.032533
     26 H6          21.9860    23.8510    17.9820 hc         1 7PF       0.032533
     27 H7          23.1610    24.8060    17.0850 hc         1 7PF       0.032533
     28 H8          22.6700    23.2180    16.4820 hc         1 7PF       0.032533
     29 H9          22.0050    24.9180    21.1640 ha         1 7PF       0.198000
     30 H11         20.7470    20.7980    21.5420 h1         1 7PF       0.077200
     31 H12         19.6800    20.6140    20.1360 h1         1 7PF       0.077200
     32 H13         23.5400    21.6350    22.7860 h1         1 7PF       0.082200
     33 H14         23.3370    19.8090    22.8800 h1         1 7PF       0.082200
     34 H15         23.1700    21.1490    17.8630 hc         1 7PF       0.048700
     35 H16         24.6630    21.1850    18.7970 hc         1 7PF       0.048700
     36 H18         23.9030    23.1360    21.4840 hc         1 7PF       0.045700
     37 H19         21.1400    21.8400    18.7130 hc         1 7PF       0.084700
@<TRIPOS>BOND
     1     1     2 1   
     2     1    12 1   
     3     1    21 1   
     4     1    22 1   
     5     2     3 1   
     6     2     4 1   
     7     2     8 1   
     8     3    23 1   
     9     3    24 1   
    10     3    25 1   
    11     4    26 1   
    12     4    27 1   
    13     4    28 1   
    14     5    11 2   
    15     5    12 1   
    16     5    29 1   
    17     6    13 1   
    18     6    19 1   
    19     6    30 1   
    20     6    31 1   
    21     7    14 1   
    22     7    20 1   
    23     7    32 1   
    24     7    33 1   
    25     8    15 1   
    26     8    34 1   
    27     8    35 1   
    28     9    11 1   
    29     9    16 1   
    30     9    18 1   
    31    10    14 1   
    32    10    17 2   
    33    10    19 1   
    34    11    13 1   
    35    12    15 1   
    36    12    36 1   
    37    13    15 1   
    38    13    37 1   
    39    14    15 1   
    40    14    20 1   
@<TRIPOS>SUBSTRUCTURE
     1 7PF         1 TEMP              0 ****  ****    0 ROOT
