@<TRIPOS>MOLECULE
7PF
   37    40     1     0     0
SMALL
No Charge or Current Charge


@<TRIPOS>ATOM
      1 C1          24.3790    23.8810    19.4640 c5         1 7PF      -0.058400
      2 C2          24.0290    23.1550    18.1200 c5         1 7PF      -0.051000
      3 C15         25.2060    23.2300    17.1090 c3         1 7PF      -0.081100
      4 C14         22.8010    23.7810    17.3920 c3         1 7PF      -0.081100
      5 C7          22.2350    23.9460    20.8640 c2         1 7PF      -0.249200
      6 C12         20.6950    20.6240    20.2550 c6         1 7PF       0.180600
      7 C10         23.1830    20.7700    22.3520 cx         1 7PF       0.092600
      8 C3          23.8330    21.6840    18.6300 c5         1 7PF      -0.060400
      9 C13         19.7590    23.6300    20.5210 c          1 7PF       0.706200
     10 C11         22.7380    19.2710    20.3480 c          1 7PF       0.672100
     11 C6          21.2060    23.2000    20.4340 ce         1 7PF      -0.154400
     12 C8          23.5240    23.2030    20.5900 c5         1 7PF      -0.022500
     13 C5          21.4840    21.8690    19.7310 c5         1 7PF      -0.042500
     14 C9          23.3410    20.5740    20.8640 cx         1 7PF       0.000000
     15 C4          23.0530    21.8270    19.9780 c5         1 7PF      -0.043000
     16 O4          19.5040    24.6760    21.1010 o          1 7PF      -0.721000
     17 O2          23.3780    18.2460    20.1560 o          1 7PF      -0.513000
     18 O5          18.8890    22.9490    19.9980 o          1 7PF      -0.721000
     19 O3          21.4150    19.3920    19.9920 os         1 7PF      -0.445100
     20 O1          24.4900    20.5720    21.7520 op         1 7PF      -0.424000
     21 H1          25.4430    23.7510    19.6980 hc         1 7PF       0.037700
     22 H2          24.2160    24.9640    19.4100 hc         1 7PF       0.037700
     23 H3          26.1250    22.8040    17.5290 hc         1 7PF       0.032533
     24 H4          24.9780    22.6740    16.1910 hc         1 7PF       0.032533
     25 H5          25.4280    24.2670    16.8270 hc         1 7PF       0.032533
     26 H6          21.9680    24.0040    18.0610 hc         1 7PF       0.032533
     27 H7          23.0660    24.7370    16.9220 hc         1 7PF       0.032533
     28 H8          22.4300    23.1200    16.5990 hc         1 7PF       0.032533
     29 H9          22.1170    24.9160    21.3430 ha         1 7PF       0.198000
     30 H11         20.5380    20.7130    21.3390 h1         1 7PF       0.077200
     31 H12         19.7040    20.5610    19.7830 h1         1 7PF       0.077200
     32 H13         22.9960    21.7600    22.7660 h1         1 7PF       0.082200
     33 H14         22.8280    19.9380    22.9610 h1         1 7PF       0.082200
     34 H15         23.3180    21.0480    17.9000 hc         1 7PF       0.048700
     35 H16         24.8080    21.2130    18.8070 hc         1 7PF       0.048700
     36 H18         24.1260    23.1240    21.5020 hc         1 7PF       0.045700
     37 H19         21.2270    21.9280    18.6680 hc         1 7PF       0.084700
@<TRIPOS>BOND
     1     1     2 1   
     2     1    12 1   
     3     1    21 1   
     4     1    22 1   
     5     2     3 1   
     6     2     4 1   
     7     2     8 1   
     8     3    23 1   
     9     3    24 1   
    10     3    25 1   
    11     4    26 1   
    12     4    27 1   
    13     4    28 1   
    14     5    11 2   
    15     5    12 1   
    16     5    29 1   
    17     6    13 1   
    18     6    19 1   
    19     6    30 1   
    20     6    31 1   
    21     7    14 1   
    22     7    20 1   
    23     7    32 1   
    24     7    33 1   
    25     8    15 1   
    26     8    34 1   
    27     8    35 1   
    28     9    11 1   
    29     9    16 1   
    30     9    18 1   
    31    10    14 1   
    32    10    17 2   
    33    10    19 1   
    34    11    13 1   
    35    12    15 1   
    36    12    36 1   
    37    13    15 1   
    38    13    37 1   
    39    14    15 1   
    40    14    20 1   
@<TRIPOS>SUBSTRUCTURE
     1 7PF         1 TEMP              0 ****  ****    0 ROOT
