@<TRIPOS>MOLECULE
7PG
   62    61     1     0     0
SMALL
bcc


@<TRIPOS>ATOM
      1 OXT        -14.9190     5.9870     7.7790 oh         1 7PG      -0.578800
      2 C1         -13.6660     5.5980     8.2890 c3         1 7PG       0.134400
      3 C2         -12.5420     5.6700     7.2790 c3         1 7PG       0.095400
      4 O1         -12.7880     4.7890     6.2140 os         1 7PG      -0.391600
      5 C3         -11.7860     4.8480     5.2300 c3         1 7PG       0.133400
      6 C4         -12.1110     3.9270     4.0820 c3         1 7PG       0.139400
      7 O2         -11.9540     2.5830     4.4580 os         1 7PG      -0.386600
      8 C5         -12.1470     1.7060     3.3770 c3         1 7PG       0.138400
      9 C6         -11.7620     0.3030     3.7690 c3         1 7PG       0.137400
     10 O3         -10.3830     0.2460     4.0280 os         1 7PG      -0.386600
     11 C7          -9.9650    -1.0050     4.5060 c3         1 7PG       0.139400
     12 C8          -8.4610    -1.0460     4.6070 c3         1 7PG       0.139400
     13 O4          -8.0100    -0.0850     5.5270 os         1 7PG      -0.372600
     14 C9          -6.6310    -0.1840     5.7750 c3         1 7PG       0.139400
     15 C10         -6.1620     1.0010     6.5800 c3         1 7PG       0.141400
     16 O5          -6.8020     1.0230     7.8280 os         1 7PG      -0.380600
     17 C11         -6.3890     2.0960     8.6360 c3         1 7PG       0.139400
     18 C12         -7.3060     2.2130     9.8280 c3         1 7PG       0.141400
     19 O6          -8.5880     2.5640     9.3810 os         1 7PG      -0.387600
     20 C13         -9.5520     2.6300    10.3980 c3         1 7PG       0.139400
     21 C14        -10.9090     2.8170     9.7680 c3         1 7PG       0.143400
     22 O7         -11.2360     1.6700     9.0310 os         1 7PG      -0.385600
     23 C15        -12.3990     1.8150     8.2570 c3         1 7PG       0.135400
     24 C16        -12.6270     0.5570     7.4630 c3         1 7PG       0.131400
     25 O8         -12.9570    -0.5060     8.3190 os         1 7PG      -0.399600
     26 C17        -13.1430    -1.7100     7.6220 c3         1 7PG       0.126700
     27 HOXT       -14.8730     6.9190     7.5470 ho         1 7PG       0.396000
     28 H11        -13.3670     6.2020     9.1550 h1         1 7PG       0.048700
     29 H12        -13.7770     4.5710     8.6460 h1         1 7PG       0.048700
     30 H21        -11.6000     5.4200     7.7900 h1         1 7PG       0.022200
     31 H22        -12.4320     6.7020     6.9120 h1         1 7PG       0.022200
     32 H31        -11.7000     5.8670     4.8280 h1         1 7PG       0.033200
     33 H32        -10.8030     4.5870     5.6480 h1         1 7PG       0.033200
     34 H41        -11.4320     4.1780     3.2550 h1         1 7PG       0.028200
     35 H42        -13.1310     4.1260     3.7210 h1         1 7PG       0.028200
     36 H51        -13.1970     1.6970     3.0520 h1         1 7PG       0.028200
     37 H52        -11.5510     2.0210     2.5070 h1         1 7PG       0.028200
     38 H61        -12.0390    -0.3720     2.9470 h1         1 7PG       0.025700
     39 H62        -12.3450    -0.0150     4.6440 h1         1 7PG       0.025700
     40 H71        -10.4130    -1.2200     5.4870 h1         1 7PG       0.027200
     41 H72        -10.2750    -1.8150     3.8300 h1         1 7PG       0.027200
     42 H81         -8.0130    -0.8790     3.6170 h1         1 7PG       0.023200
     43 H82         -8.1760    -2.0610     4.9170 h1         1 7PG       0.023200
     44 H91         -6.3930    -1.1210     6.2990 h1         1 7PG       0.023700
     45 H92         -6.0560    -0.1910     4.8380 h1         1 7PG       0.023700
     46 H101        -6.3590     1.9290     6.0240 h1         1 7PG       0.024700
     47 H102        -5.0710     0.9220     6.6880 h1         1 7PG       0.024700
     48 H111        -5.3600     1.9530     8.9950 h1         1 7PG       0.024700
     49 H112        -6.3990     3.0400     8.0720 h1         1 7PG       0.024700
     50 H121        -6.8920     2.9710    10.5080 h1         1 7PG       0.025700
     51 H122        -7.3260     1.2650    10.3840 h1         1 7PG       0.025700
     52 H131        -9.5460     1.7160    11.0100 h1         1 7PG       0.026200
     53 H132        -9.3640     3.4710    11.0810 h1         1 7PG       0.026200
     54 H141       -10.8920     3.7100     9.1230 h1         1 7PG       0.020700
     55 H142       -11.6460     3.0110    10.5590 h1         1 7PG       0.020700
     56 H151       -13.2750     2.0270     8.8880 h1         1 7PG       0.036700
     57 H152       -12.3040     2.6450     7.5460 h1         1 7PG       0.036700
     58 H161       -11.7230     0.3300     6.8790 h1         1 7PG       0.037700
     59 H162       -13.4330     0.7440     6.7380 h1         1 7PG       0.037700
     60 H171       -12.2200    -2.0510     7.1360 h1         1 7PG       0.022033
     61 H172       -13.9150    -1.6240     6.8480 h1         1 7PG       0.022033
     62 H173       -13.4540    -2.4710     8.3370 h1         1 7PG       0.022033
@<TRIPOS>BOND
     1     1     2 1   
     2     1    27 1   
     3     2     3 1   
     4     2    28 1   
     5     2    29 1   
     6     3     4 1   
     7     3    30 1   
     8     3    31 1   
     9     4     5 1   
    10     5     6 1   
    11     5    32 1   
    12     5    33 1   
    13     6     7 1   
    14     6    34 1   
    15     6    35 1   
    16     7     8 1   
    17     8     9 1   
    18     8    36 1   
    19     8    37 1   
    20     9    10 1   
    21     9    38 1   
    22     9    39 1   
    23    10    11 1   
    24    11    12 1   
    25    11    40 1   
    26    11    41 1   
    27    12    13 1   
    28    12    42 1   
    29    12    43 1   
    30    13    14 1   
    31    14    15 1   
    32    14    44 1   
    33    14    45 1   
    34    15    16 1   
    35    15    46 1   
    36    15    47 1   
    37    16    17 1   
    38    17    18 1   
    39    17    48 1   
    40    17    49 1   
    41    18    19 1   
    42    18    50 1   
    43    18    51 1   
    44    19    20 1   
    45    20    21 1   
    46    20    52 1   
    47    20    53 1   
    48    21    22 1   
    49    21    54 1   
    50    21    55 1   
    51    22    23 1   
    52    23    24 1   
    53    23    56 1   
    54    23    57 1   
    55    24    25 1   
    56    24    58 1   
    57    24    59 1   
    58    25    26 1   
    59    26    60 1   
    60    26    61 1   
    61    26    62 1   
@<TRIPOS>SUBSTRUCTURE
     1 7PG         1 TEMP              0 ****  ****    0 ROOT
