@<TRIPOS>MOLECULE
7PG
   62    61     1     0     0
SMALL
No Charge or Current Charge


@<TRIPOS>ATOM
      1 OXT        -15.8860     4.8840     6.9270 oh         1 7PG      -0.701000
      2 C1         -14.8710     5.1340     7.9090 c3         1 7PG       0.157600
      3 C2         -13.5640     5.5630     7.2000 c3         1 7PG       0.118600
      4 O1         -13.3840     4.7180     6.0450 os         1 7PG      -0.438000
      5 C3         -12.1810     4.9790     5.2930 c3         1 7PG       0.156600
      6 C4         -12.1830     4.0980     4.0220 c3         1 7PG       0.162600
      7 O2         -11.9500     2.7260     4.3950 os         1 7PG      -0.433000
      8 C5         -12.0220     1.7930     3.2990 c3         1 7PG       0.161600
      9 C6         -11.7510     0.3670     3.8330 c3         1 7PG       0.160600
     10 O3         -10.3350     0.2010     4.0470 os         1 7PG      -0.433000
     11 C7          -9.9750    -1.0330     4.7010 c3         1 7PG       0.162600
     12 C8          -8.4380    -1.2120     4.6630 c3         1 7PG       0.162600
     13 O4          -7.8120    -0.2160     5.4960 os         1 7PG      -0.419000
     14 C9          -6.3870    -0.3790     5.6450 c3         1 7PG       0.162600
     15 C10         -5.8180     0.7920     6.4830 c3         1 7PG       0.164600
     16 O5          -6.3480     0.7180     7.8200 os         1 7PG      -0.427000
     17 C11         -5.8560     1.7310     8.7200 c3         1 7PG       0.162600
     18 C12         -6.7260     1.7200    10.0000 c3         1 7PG       0.164600
     19 O6          -8.0120     2.2780     9.6730 os         1 7PG      -0.434000
     20 C13         -8.9860     2.2410    10.7330 c3         1 7PG       0.162600
     21 C14        -10.3100     2.8370    10.1980 c3         1 7PG       0.166600
     22 O7         -10.8610     1.9380     9.2160 os         1 7PG      -0.432000
     23 C15        -12.0000     2.4540     8.5020 c3         1 7PG       0.158600
     24 C16        -12.4630     1.4040     7.4660 c3         1 7PG       0.154600
     25 O8         -13.0880     0.3020     8.1550 os         1 7PG      -0.446000
     26 C17        -13.5390    -0.7570     7.2960 c3         1 7PG       0.149900
     27 HOXT       -15.3760     4.5880     6.1340 ho         1 7PG       0.495000
     28 H11        -15.1830     5.9180     8.6120 h1         1 7PG       0.048700
     29 H12        -14.6720     4.2230     8.4900 h1         1 7PG       0.048700
     30 H21        -12.7200     5.4710     7.8970 h1         1 7PG       0.022200
     31 H22        -13.6450     6.6150     6.8960 h1         1 7PG       0.022200
     32 H31        -12.1460     6.0330     4.9880 h1         1 7PG       0.033200
     33 H32        -11.2870     4.7660     5.8920 h1         1 7PG       0.033200
     34 H41        -11.3910     4.4460     3.3460 h1         1 7PG       0.028200
     35 H42        -13.1450     4.2080     3.5050 h1         1 7PG       0.028200
     36 H51        -13.0230     1.8160     2.8490 h1         1 7PG       0.028200
     37 H52        -11.2910     2.0410     2.5180 h1         1 7PG       0.028200
     38 H61        -12.1070    -0.3630     3.0950 h1         1 7PG       0.025700
     39 H62        -12.3150     0.2130     4.7610 h1         1 7PG       0.025700
     40 H71        -10.3240    -1.0390     5.7420 h1         1 7PG       0.027200
     41 H72        -10.4350    -1.8850     4.1830 h1         1 7PG       0.027200
     42 H81         -8.0830    -1.1340     3.6270 h1         1 7PG       0.023200
     43 H82         -8.1970    -2.2180     5.0300 h1         1 7PG       0.023200
     44 H91         -6.1510    -1.3300     6.1390 h1         1 7PG       0.023700
     45 H92         -5.8980    -0.3760     4.6610 h1         1 7PG       0.023700
     46 H101        -6.0870     1.7450     6.0090 h1         1 7PG       0.024700
     47 H102        -4.7230     0.7160     6.5010 h1         1 7PG       0.024700
     48 H111        -4.8110     1.5270     8.9870 h1         1 7PG       0.024700
     49 H112        -5.9050     2.7270     8.2600 h1         1 7PG       0.024700
     50 H121        -6.2350     2.3220    10.7760 h1         1 7PG       0.025700
     51 H122        -6.8220     0.6900    10.3710 h1         1 7PG       0.025700
     52 H131        -9.1580     1.2120    11.0760 h1         1 7PG       0.026200
     53 H132        -8.6430     2.8370    11.5890 h1         1 7PG       0.026200
     54 H141       -10.1110     3.8250     9.7600 h1         1 7PG       0.020700
     55 H142       -11.0120     2.9680    11.0320 h1         1 7PG       0.020700
     56 H151       -12.8260     2.6870     9.1870 h1         1 7PG       0.036700
     57 H152       -11.7250     3.3720     7.9690 h1         1 7PG       0.036700
     58 H161       -11.5970     1.0660     6.8810 h1         1 7PG       0.037700
     59 H162       -13.1760     1.8770     6.7780 h1         1 7PG       0.037700
     60 H171       -12.6960    -1.1990     6.7480 h1         1 7PG       0.022033
     61 H172       -14.2710    -0.3840     6.5680 h1         1 7PG       0.022033
     62 H173       -14.0160    -1.5500     7.8860 h1         1 7PG       0.022033
@<TRIPOS>BOND
     1     1     2 1   
     2     1    27 1   
     3     2     3 1   
     4     2    28 1   
     5     2    29 1   
     6     3     4 1   
     7     3    30 1   
     8     3    31 1   
     9     4     5 1   
    10     5     6 1   
    11     5    32 1   
    12     5    33 1   
    13     6     7 1   
    14     6    34 1   
    15     6    35 1   
    16     7     8 1   
    17     8     9 1   
    18     8    36 1   
    19     8    37 1   
    20     9    10 1   
    21     9    38 1   
    22     9    39 1   
    23    10    11 1   
    24    11    12 1   
    25    11    40 1   
    26    11    41 1   
    27    12    13 1   
    28    12    42 1   
    29    12    43 1   
    30    13    14 1   
    31    14    15 1   
    32    14    44 1   
    33    14    45 1   
    34    15    16 1   
    35    15    46 1   
    36    15    47 1   
    37    16    17 1   
    38    17    18 1   
    39    17    48 1   
    40    17    49 1   
    41    18    19 1   
    42    18    50 1   
    43    18    51 1   
    44    19    20 1   
    45    20    21 1   
    46    20    52 1   
    47    20    53 1   
    48    21    22 1   
    49    21    54 1   
    50    21    55 1   
    51    22    23 1   
    52    23    24 1   
    53    23    56 1   
    54    23    57 1   
    55    24    25 1   
    56    24    58 1   
    57    24    59 1   
    58    25    26 1   
    59    26    60 1   
    60    26    61 1   
    61    26    62 1   
@<TRIPOS>SUBSTRUCTURE
     1 7PG         1 TEMP              0 ****  ****    0 ROOT
