@<TRIPOS>MOLECULE
7PI
   29    31     1     0     0
SMALL
bcc


@<TRIPOS>ATOM
      1 C1           8.4110     6.5550     9.6410 cc         1 7PI       0.022900
      2 C10          9.2800     5.2020    11.5460 ca         1 7PI      -0.108000
      3 C11          3.7420     9.7480     9.8020 cc         1 7PI      -0.091300
      4 C12          2.9660     9.2990    10.8320 cd         1 7PI      -0.299300
      5 C13          3.8580     9.1370    11.9160 cd         1 7PI       0.335200
      6 C2           7.7660     6.6060     8.4290 cd         1 7PI      -0.180000
      7 C3           7.0540     7.8030     8.2290 cd         1 7PI       0.001000
      8 C4           7.1840     8.6470     9.2960 cc         1 7PI      -0.361600
      9 C5           9.2270     5.4660    10.1760 ca         1 7PI      -0.036000
     10 C6           9.9590     4.6570     9.3030 ca         1 7PI      -0.108000
     11 C7          10.7210     3.6080     9.7910 ca         1 7PI      -0.126500
     12 C8          10.7700     3.3550    11.1560 ca         1 7PI      -0.114000
     13 C9          10.0490     4.1560    12.0310 ca         1 7PI      -0.126500
     14 N1           5.0010     9.8480    10.3090 na         1 7PI      -0.044100
     15 N2           5.0860     9.4640    11.5880 nc         1 7PI      -0.499800
     16 O1           5.9940    10.6670     8.1750 o          1 7PI      -0.585800
     17 O2           7.2450    11.0000    10.3500 o          1 7PI      -0.585800
     18 S1           8.1670     8.0000    10.5420 ss         1 7PI       0.111200
     19 S2           6.4370    10.1970     9.4660 sy         1 7PI       1.389300
     20 H1           8.7010     5.8000    12.2410 ha         1 7PI       0.136000
     21 H3           1.9050     9.1140    10.8150 ha         1 7PI       0.165000
     22 H4           3.6370     8.7970    12.9160 h4         1 7PI       0.039100
     23 H5           7.7860     5.7960     7.7150 ha         1 7PI       0.159000
     24 H6           6.4710     8.0250     7.3470 ha         1 7PI       0.168000
     25 H7           9.9470     4.8600     8.2400 ha         1 7PI       0.136000
     26 H8          11.2850     2.9920     9.1030 ha         1 7PI       0.136000
     27 H9          11.3690     2.5380    11.5360 ha         1 7PI       0.135000
     28 H10         10.0750     3.9600    13.0950 ha         1 7PI       0.136000
     29 H2           3.5030    10.0060     8.7850 h4         1 7PI       0.195000
@<TRIPOS>BOND
     1     1     6 2   
     2     1     9 1   
     3     1    18 1   
     4     2     9 ar  
     5     2    13 ar  
     6     2    20 1   
     7     3     4 2   
     8     3    14 1   
     9     3    29 1   
    10     4     5 1   
    11     4    21 1   
    12     5    15 2   
    13     5    22 1   
    14     6     7 1   
    15     6    23 1   
    16     7     8 2   
    17     7    24 1   
    18     8    18 1   
    19     8    19 1   
    20     9    10 ar  
    21    10    11 ar  
    22    10    25 1   
    23    11    12 ar  
    24    11    26 1   
    25    12    13 ar  
    26    12    27 1   
    27    13    28 1   
    28    14    15 1   
    29    14    19 1   
    30    16    19 2   
    31    17    19 2   
@<TRIPOS>SUBSTRUCTURE
     1 7PI         1 TEMP              0 ****  ****    0 ROOT
