@<TRIPOS>MOLECULE
7PI
   29    31     1     0     0
SMALL
No Charge or Current Charge


@<TRIPOS>ATOM
      1 C1           8.4890     6.5840     9.6890 cc         1 7PI      -0.122000
      2 C10          9.2630     5.0870    11.5250 ca         1 7PI      -0.090000
      3 C11          3.6620     9.5310     9.8310 cc         1 7PI      -0.124000
      4 C12          2.8780     9.3220    10.9290 cd         1 7PI      -0.216000
      5 C13          3.6690     9.5350    12.0740 cd         1 7PI       0.269900
      6 C2           7.9440     6.6260     8.4270 cd         1 7PI      -0.162000
      7 C3           7.2040     7.8160     8.1880 cd         1 7PI       0.019000
      8 C4           7.1930     8.6650     9.2710 cc         1 7PI      -0.506500
      9 C5           9.2720     5.4360    10.1580 ca         1 7PI      -0.036000
     10 C6          10.0570     4.6740     9.2650 ca         1 7PI      -0.090000
     11 C7          10.8090     3.5800     9.7300 ca         1 7PI      -0.108500
     12 C8          10.7870     3.2380    11.0910 ca         1 7PI      -0.096000
     13 C9          10.0140     3.9920    11.9880 ca         1 7PI      -0.108500
     14 N1           4.9070     9.8680    10.3720 na         1 7PI       0.006600
     15 N2           4.9100     9.8660    11.7750 nc         1 7PI      -0.499800
     16 O1           5.9170    10.6080     8.0590 o          1 7PI      -0.515000
     17 O2           7.2300    11.0900    10.2410 o          1 7PI      -0.515000
     18 S1           8.0750     8.0130    10.6370 ss         1 7PI       0.401000
     19 S2           6.3650    10.2360     9.4100 sy         1 7PI       1.247700
     20 H1           8.6650     5.6540    12.2330 ha         1 7PI       0.118000
     21 H3           1.8300     9.0400    10.9250 ha         1 7PI       0.147000
     22 H4           3.3740     9.4550    13.1140 h4         1 7PI       0.039100
     23 H5           8.0470     5.8380     7.6880 ha         1 7PI       0.141000
     24 H6           6.6980     8.0240     7.2470 ha         1 7PI       0.150000
     25 H7          10.1010     4.9320     8.2100 ha         1 7PI       0.118000
     26 H8          11.4120     3.0010     9.0340 ha         1 7PI       0.118000
     27 H9          11.3690     2.3910    11.4510 ha         1 7PI       0.117000
     28 H10          9.9950     3.7290    13.0440 ha         1 7PI       0.118000
     29 H2           3.4600     9.4720     8.7660 h4         1 7PI       0.177000
@<TRIPOS>BOND
     1     1     6 2   
     2     1     9 1   
     3     1    18 1   
     4     2     9 ar  
     5     2    13 ar  
     6     2    20 1   
     7     3     4 2   
     8     3    14 1   
     9     3    29 1   
    10     4     5 1   
    11     4    21 1   
    12     5    15 2   
    13     5    22 1   
    14     6     7 1   
    15     6    23 1   
    16     7     8 2   
    17     7    24 1   
    18     8    18 1   
    19     8    19 1   
    20     9    10 ar  
    21    10    11 ar  
    22    10    25 1   
    23    11    12 ar  
    24    11    26 1   
    25    12    13 ar  
    26    12    27 1   
    27    13    28 1   
    28    14    15 1   
    29    14    19 1   
    30    16    19 2   
    31    17    19 2   
@<TRIPOS>SUBSTRUCTURE
     1 7PI         1 TEMP              0 ****  ****    0 ROOT
