@<TRIPOS>MOLECULE
7PJ
   22    23     1     0     0
SMALL
bcc


@<TRIPOS>ATOM
      1 C1           1.3590     0.5290     0.0320 cc         1 7PJ       0.178800
      2 C2           1.7340    -0.8010     0.0170 cd         1 7PJ       0.089800
      3 C3           2.3750     1.5240     0.0380 c          1 7PJ       0.659000
      4 C4           3.9090    -0.4080     0.0070 cc         1 7PJ       0.701800
      5 C5          -0.4520    -0.5690     0.0280 cd         1 7PJ       0.521800
      6 C6          -4.4720     0.2330     0.0010 c          1 7PJ       0.944600
      7 C7          -2.9540     0.4930     0.0060 c3         1 7PJ      -0.122300
      8 N8           2.9690    -1.3200     0.0010 nd         1 7PJ      -0.693100
      9 N9           0.5640    -1.4930     0.0150 na         1 7PJ      -0.301900
     10 N10          3.6450     0.9300     0.0250 ns         1 7PJ      -0.524400
     11 N11         -0.0100     0.6540     0.0390 nc         1 7PJ      -0.625000
     12 N12          5.2020    -0.7750     0.0370 nv         1 7PJ      -0.939800
     13 O13         -4.8300    -0.9580     0.0350 o          1 7PJ      -0.817300
     14 O14         -5.1840     1.2500    -0.0350 o          1 7PJ      -0.817300
     15 O15          2.2610     2.7390     0.0530 o          1 7PJ      -0.609500
     16 S16         -2.1110    -1.1080     0.0300 ss         1 7PJ      -0.258400
     17 H1          -2.6520     1.0560    -0.8780 h1         1 7PJ       0.063200
     18 H2          -2.6630     1.0770     0.8800 h1         1 7PJ       0.063200
     19 H3           0.4700    -2.4970     0.0030 hn         1 7PJ       0.314700
     20 H4           4.4260     1.5730     0.0400 hn         1 7PJ       0.309500
     21 H6           5.4060    -1.7430    -0.1430 hn         1 7PJ       0.431800
     22 H7           5.9220    -0.1200    -0.2170 hn         1 7PJ       0.431800
@<TRIPOS>BOND
     1     1     2 2   
     2     1     3 1   
     3     1    11 1   
     4     2     8 1   
     5     2     9 1   
     6     3    10 1   
     7     3    15 2   
     8     4     8 2   
     9     4    10 1   
    10     4    12 1   
    11     5     9 1   
    12     5    11 2   
    13     5    16 1   
    14     6     7 1   
    15     6    13 1   
    16     6    14 1   
    17     7    16 1   
    18     7    17 1   
    19     7    18 1   
    20     9    19 1   
    21    10    20 1   
    22    12    21 1   
    23    12    22 1   
@<TRIPOS>SUBSTRUCTURE
     1 7PJ         1 TEMP              0 ****  ****    0 ROOT
