@<TRIPOS>MOLECULE
7PJ
   22    23     1     0     0
SMALL
No Charge or Current Charge


@<TRIPOS>ATOM
      1 C1           1.4080     0.4520     0.1100 cc         1 7PJ       0.113500
      2 C2           1.7620    -0.8610    -0.0990 cd         1 7PJ       0.104400
      3 C3           2.4570     1.4870     0.2940 c          1 7PJ       0.516500
      4 C4           3.9530    -0.3610     0.0080 cc         1 7PJ       0.701800
      5 C5          -0.4030    -0.6390    -0.0900 cd         1 7PJ       0.521800
      6 C6          -4.5500     0.2980     0.0130 c          1 7PJ       0.734000
      7 C7          -3.0210     0.4730     0.0600 c3         1 7PJ      -0.074400
      8 N8           3.0720    -1.3240    -0.1580 nd         1 7PJ      -0.693100
      9 N9           0.5980    -1.5720    -0.2290 na         1 7PJ      -0.301500
     10 N10          3.7070     0.9530     0.2200 ns         1 7PJ      -0.457400
     11 N11          0.0350     0.5940     0.1170 nc         1 7PJ      -0.625000
     12 N12          5.2260    -0.7090    -0.0390 nv         1 7PJ      -1.050200
     13 O13         -5.1380     0.0640     1.0600 o          1 7PJ      -0.712000
     14 O14         -5.1120     0.4100    -1.0680 o          1 7PJ      -0.712000
     15 O15          2.2720     2.6810     0.4910 o          1 7PJ      -0.534000
     16 S16         -2.0950    -1.1250    -0.1890 ss         1 7PJ      -0.306300
     17 H1          -2.7300     1.1850    -0.7220 h1         1 7PJ       0.063200
     18 H2          -2.7520     0.8990     1.0330 h1         1 7PJ       0.063200
     19 H3           0.4870    -2.5600    -0.3920 hn         1 7PJ       0.365000
     20 H4           4.4800     1.5840     0.3550 hn         1 7PJ       0.309500
     21 H6           5.3750    -1.6480    -0.3900 hn         1 7PJ       0.487000
     22 H7           5.8840    -0.0140    -0.3700 hn         1 7PJ       0.487000
@<TRIPOS>BOND
     1     1     2 2   
     2     1     3 1   
     3     1    11 1   
     4     2     8 1   
     5     2     9 1   
     6     3    10 1   
     7     3    15 2   
     8     4     8 2   
     9     4    10 1   
    10     4    12 1   
    11     5     9 1   
    12     5    11 2   
    13     5    16 1   
    14     6     7 1   
    15     6    13 1   
    16     6    14 1   
    17     7    16 1   
    18     7    17 1   
    19     7    18 1   
    20     9    19 1   
    21    10    20 1   
    22    12    21 1   
    23    12    22 1   
@<TRIPOS>SUBSTRUCTURE
     1 7PJ         1 TEMP              0 ****  ****    0 ROOT
