@<TRIPOS>MOLECULE
7PL
   48    51     1     0     0
SMALL
No Charge or Current Charge


@<TRIPOS>ATOM
      1 C10         20.5040    69.9090    41.4760 ca         1 7PL       0.191900
      2 C13         18.6320    68.0230    41.1690 ca         1 7PL      -0.337000
      3 C15         17.3470    67.2000    43.8970 ca         1 7PL       0.312000
      4 C17         16.1970    65.6040    45.3370 ca         1 7PL      -0.084000
      5 C20         16.1730    67.3330    43.1310 ca         1 7PL      -0.104000
      6 C26         18.3310    65.2390    34.3010 c          1 7PL       0.640100
      7 C28         18.0140    64.3760    33.0990 cx         1 7PL      -0.253700
      8 C01         17.0690    66.2120    36.3170 ca         1 7PL       0.010000
      9 C02         15.7810    66.2550    36.8810 ca         1 7PL      -0.188000
     10 C03         15.5410    66.9700    38.0650 ca         1 7PL      -0.052000
     11 C04         16.5950    67.6430    38.7000 ca         1 7PL      -0.171000
     12 C05         17.8920    67.5970    38.1610 ca         1 7PL       0.329000
     13 C06         18.1210    66.8960    36.9660 ca         1 7PL      -0.181000
     14 C08         19.2400    68.6310    40.0680 ca         1 7PL       0.405900
     15 C12         19.0190    68.4650    42.4360 ca         1 7PL       0.397900
     16 C16         17.3470    66.3420    45.0090 ca         1 7PL      -0.130000
     17 C18         15.0350    65.7250    44.5560 ca         1 7PL      -0.087000
     18 C19         15.0110    66.5890    43.4400 ca         1 7PL      -0.162300
     19 C29         18.5120    64.8070    31.7320 cx         1 7PL      -0.092400
     20 C30         17.0400    64.8990    32.0600 cx         1 7PL      -0.092400
     21 F22         12.9540    67.7360    43.0740 f          1 7PL      -0.113000
     22 F23         12.9910    65.6190    42.5820 f          1 7PL      -0.113000
     23 F24         14.0130    67.0440    41.3060 f          1 7PL      -0.113000
     24 N07         18.9540    68.2690    38.7640 nu         1 7PL      -0.945900
     25 N09         20.1880    69.5670    40.2100 nb         1 7PL      -0.277000
     26 N11         19.9650    69.3990    42.6020 nb         1 7PL      -0.282000
     27 N14         18.5010    67.9320    43.6020 nu         1 7PL      -0.950900
     28 O27         19.4630    65.6590    34.5080 o          1 7PL      -0.590100
     29 H1          21.2740    70.6690    41.6010 h5         1 7PL       0.048100
     30 H2          17.9220    67.2170    41.0450 ha         1 7PL       0.145000
     31 H3          16.2060    64.9390    46.1980 ha         1 7PL       0.125000
     32 H4          16.1570    68.0340    42.3030 ha         1 7PL       0.140000
     33 H5          17.9950    63.3080    33.2980 hc         1 7PL       0.085700
     34 H6          14.9570    65.7370    36.3960 ha         1 7PL       0.113000
     35 H7          14.5380    67.0080    38.4850 ha         1 7PL       0.123000
     36 H8          16.3950    68.2160    39.6000 ha         1 7PL       0.125000
     37 H9          19.1270    66.8830    36.5640 ha         1 7PL       0.153000
     38 H10         18.2420    66.2400    45.6170 ha         1 7PL       0.123000
     39 H11         14.1520    65.1490    44.8290 ha         1 7PL       0.135000
     40 H12         18.8290    64.0310    31.0390 hc         1 7PL       0.084200
     41 H13         19.0710    65.7370    31.6560 hc         1 7PL       0.084200
     42 H14         16.6170    65.8930    32.1960 hc         1 7PL       0.084200
     43 H15         16.3710    64.1850    31.5850 hc         1 7PL       0.084200
     44 H16         19.6920    68.5430    38.1150 hn         1 7PL       0.516000
     45 H17         19.1040    68.0990    44.4080 hn         1 7PL       0.513000
     46 H18         16.3800    65.0420    34.7810 hn         1 7PL       0.152000
     47 C21         13.7400    66.7450    42.5980 c3         1 7PL       0.342300
     48 N25         17.2320    65.4760    35.1120 ns         1 7PL      -0.145000
@<TRIPOS>BOND
     1     1    25 ar  
     2     1    26 ar  
     3     1    29 1   
     4     2    14 ar  
     5     2    15 ar  
     6     2    30 1   
     7     3     5 ar  
     8     3    16 ar  
     9     3    27 1   
    10     4    16 ar  
    11     4    17 ar  
    12     4    31 1   
    13     5    18 ar  
    14     5    32 1   
    15     6     7 1   
    16     6    28 2   
    17     6    48 1   
    18     7    19 1   
    19     7    20 1   
    20     7    33 1   
    21     8     9 ar  
    22     8    13 ar  
    23     8    48 1   
    24     9    10 ar  
    25     9    34 1   
    26    10    11 ar  
    27    10    35 1   
    28    11    12 ar  
    29    11    36 1   
    30    12    13 ar  
    31    12    24 1   
    32    13    37 1   
    33    14    24 1   
    34    14    25 ar  
    35    15    26 ar  
    36    15    27 1   
    37    16    38 1   
    38    17    18 ar  
    39    17    39 1   
    40    18    47 1   
    41    19    20 1   
    42    19    40 1   
    43    19    41 1   
    44    20    42 1   
    45    20    43 1   
    46    21    47 1   
    47    22    47 1   
    48    23    47 1   
    49    24    44 1   
    50    27    45 1   
    51    46    48 1   
@<TRIPOS>SUBSTRUCTURE
     1 7PL         1 TEMP              0 ****  ****    0 ROOT
