@<TRIPOS>MOLECULE
7PL
   48    51     1     0     0
SMALL
abcg2


@<TRIPOS>ATOM
      1 C10         20.4910    69.8600    41.2980 ca         1 7PL       0.191900
      2 C13         18.4630    68.1490    41.0630 ca         1 7PL      -0.337000
      3 C15         17.4590    67.1350    43.7530 ca         1 7PL       0.312000
      4 C17         16.4950    65.3780    45.1080 ca         1 7PL      -0.084000
      5 C20         16.2490    67.2550    43.0690 ca         1 7PL      -0.104000
      6 C26         17.8590    65.6270    34.3160 c          1 7PL       0.640100
      7 C28         17.6100    64.7620    33.1320 cx         1 7PL      -0.253700
      8 C01         16.7070    66.3550    36.4170 ca         1 7PL       0.010000
      9 C02         15.4730    66.2860    37.0770 ca         1 7PL      -0.188000
     10 C03         15.2900    66.9710    38.2660 ca         1 7PL      -0.052000
     11 C04         16.3120    67.7280    38.8270 ca         1 7PL      -0.171000
     12 C05         17.5490    67.7780    38.1830 ca         1 7PL       0.329000
     13 C06         17.7470    67.0940    36.9800 ca         1 7PL      -0.181000
     14 C08         19.0220    68.7720    39.9480 ca         1 7PL       0.405900
     15 C12         18.9900    68.4870    42.3070 ca         1 7PL       0.397900
     16 C16         17.5670    66.1930    44.7830 ca         1 7PL      -0.130000
     17 C18         15.2970    65.4710    44.4080 ca         1 7PL      -0.087000
     18 C19         15.1870    66.4170    43.3950 ca         1 7PL      -0.162300
     19 C29         18.7980    64.0590    32.5070 cx         1 7PL      -0.092400
     20 C30         18.1730    65.2100    31.7980 cx         1 7PL      -0.092400
     21 F22         13.5680    67.8280    42.3870 f          1 7PL      -0.113000
     22 F23         12.8670    65.9470    43.2120 f          1 7PL      -0.113000
     23 F24         14.0240    65.9660    41.3790 f          1 7PL      -0.113000
     24 N07         18.6210    68.5480    38.6630 nu         1 7PL      -0.945900
     25 N09         20.0530    69.6410    40.0670 nb         1 7PL      -0.277000
     26 N11         20.0220    69.3520    42.4300 nb         1 7PL      -0.282000
     27 N14         18.5550    67.9620    43.4950 nu         1 7PL      -0.950900
     28 O27         18.8990    66.2650    34.4600 o          1 7PL      -0.590100
     29 H1          21.3310    70.5420    41.3930 h5         1 7PL       0.048100
     30 H2          17.6940    67.4050    40.9600 ha         1 7PL       0.145000
     31 H3          16.5960    64.6550    45.9070 ha         1 7PL       0.125000
     32 H4          16.1220    68.0120    42.3110 ha         1 7PL       0.140000
     33 H5          16.6650    64.2370    33.1110 hc         1 7PL       0.085700
     34 H6          14.6660    65.7050    36.6460 ha         1 7PL       0.113000
     35 H7          14.3300    66.9280    38.7640 ha         1 7PL       0.123000
     36 H8          16.1340    68.2920    39.7290 ha         1 7PL       0.125000
     37 H9          18.7040    67.1400    36.4890 ha         1 7PL       0.153000
     38 H10         18.5020    66.1090    45.3240 ha         1 7PL       0.123000
     39 H11         14.4660    64.8260    44.6530 ha         1 7PL       0.135000
     40 H12         18.6250    63.0600    32.1300 hc         1 7PL       0.084200
     41 H13         19.7550    64.2210    32.9830 hc         1 7PL       0.084200
     42 H14         18.7090    66.1500    31.7960 hc         1 7PL       0.084200
     43 H15         17.5630    65.0160    30.9270 hc         1 7PL       0.084200
     44 H16         19.2690    68.8950    37.9700 hn         1 7PL       0.516000
     45 H17         19.1860    68.1230    44.2660 hn         1 7PL       0.513000
     46 H18         16.0200    65.0970    34.9630 hn         1 7PL       0.152000
     47 C21         13.9160    66.5390    42.6070 c3         1 7PL       0.342300
     48 N25         16.8300    65.6450    35.2140 ns         1 7PL      -0.145000
@<TRIPOS>BOND
     1     1    25 ar  
     2     1    26 ar  
     3     1    29 1   
     4     2    14 ar  
     5     2    15 ar  
     6     2    30 1   
     7     3     5 ar  
     8     3    16 ar  
     9     3    27 1   
    10     4    16 ar  
    11     4    17 ar  
    12     4    31 1   
    13     5    18 ar  
    14     5    32 1   
    15     6     7 1   
    16     6    28 2   
    17     6    48 1   
    18     7    19 1   
    19     7    20 1   
    20     7    33 1   
    21     8     9 ar  
    22     8    13 ar  
    23     8    48 1   
    24     9    10 ar  
    25     9    34 1   
    26    10    11 ar  
    27    10    35 1   
    28    11    12 ar  
    29    11    36 1   
    30    12    13 ar  
    31    12    24 1   
    32    13    37 1   
    33    14    24 1   
    34    14    25 ar  
    35    15    26 ar  
    36    15    27 1   
    37    16    38 1   
    38    17    18 ar  
    39    17    39 1   
    40    18    47 1   
    41    19    20 1   
    42    19    40 1   
    43    19    41 1   
    44    20    42 1   
    45    20    43 1   
    46    21    47 1   
    47    22    47 1   
    48    23    47 1   
    49    24    44 1   
    50    27    45 1   
    51    46    48 1   
@<TRIPOS>SUBSTRUCTURE
     1 7PL         1 TEMP              0 ****  ****    0 ROOT
