@<TRIPOS>MOLECULE
7PM
   32    34     1     0     0
SMALL
No Charge or Current Charge


@<TRIPOS>ATOM
      1 C1           6.1900    -0.4240    -0.5410 ca         1 7PM      -0.135000
      2 C2           5.5050     0.2590    -1.5590 ca         1 7PM      -0.127000
      3 C3           5.4930    -0.8740     0.5920 ca         1 7PM      -0.127000
      4 C4           4.1230     0.4920    -1.4450 ca         1 7PM      -0.094500
      5 C5           4.1120    -0.6420     0.7070 ca         1 7PM      -0.094500
      6 C6           3.4160     0.0440    -0.3100 ca         1 7PM      -0.023300
      7 C7          -2.5220     0.2360    -0.3570 cc         1 7PM       0.106500
      8 C8          -2.8670    -1.0490    -0.0040 cd         1 7PM       0.121400
      9 C9          -0.7060    -0.8270    -0.0910 cd         1 7PM       0.567800
     10 C10         -3.5760     1.2470    -0.6150 c          1 7PM       0.522500
     11 C11         -5.0600    -0.5580    -0.0990 cc         1 7PM       0.719800
     12 C12          1.6090     1.3100     0.9580 c          1 7PM       0.736000
     13 C13          1.9160     0.3010    -0.1890 c3         1 7PM      -0.010400
     14 N14         -1.1510     0.3750    -0.4230 nc         1 7PM      -0.587000
     15 N15         -4.1750    -1.5010     0.1380 nd         1 7PM      -0.699100
     16 N16         -1.6990    -1.7440     0.1570 na         1 7PM      -0.271500
     17 N17         -4.8230     0.7270    -0.4490 ns         1 7PM      -0.459400
     18 N18         -6.3280    -0.8980     0.0210 nv         1 7PM      -1.072200
     19 O20         -3.3970     2.4130    -0.9400 o          1 7PM      -0.537000
     20 S22          0.9860    -1.3210    -0.0590 ss         1 7PM      -0.410300
     21 H1           7.2590    -0.6040    -0.6300 ha         1 7PM       0.089000
     22 H2           6.0430     0.6080    -2.4370 ha         1 7PM       0.093000
     23 H3           6.0230    -1.4030     1.3810 ha         1 7PM       0.093000
     24 H4           3.6020     1.0220    -2.2390 ha         1 7PM       0.125500
     25 H5           3.5790    -0.9950     1.5870 ha         1 7PM       0.125500
     26 H6           1.5730     0.7860    -1.1110 h1         1 7PM       0.082700
     27 H8          -1.5800    -2.7130     0.4040 hn         1 7PM       0.369000
     28 H9          -5.6000     1.3410    -0.6260 hn         1 7PM       0.306500
     29 H10         -6.4570    -1.7970     0.4690 hn         1 7PM       0.496000
     30 H11         -6.9710    -0.1740     0.3170 hn         1 7PM       0.496000
     31 O19          1.6050     2.5030     0.6820 o          1 7PM      -0.700000
     32 O21          1.4400     0.8880     2.0960 o          1 7PM      -0.700000
@<TRIPOS>BOND
     1     1     2 ar  
     2     1     3 ar  
     3     1    21 1   
     4     2     4 ar  
     5     2    22 1   
     6     3     5 ar  
     7     3    23 1   
     8     4     6 ar  
     9     4    24 1   
    10     5     6 ar  
    11     5    25 1   
    12     6    13 1   
    13     7     8 2   
    14     7    10 1   
    15     7    14 1   
    16     8    15 1   
    17     8    16 1   
    18     9    14 2   
    19     9    16 1   
    20     9    20 1   
    21    10    17 1   
    22    10    19 2   
    23    11    15 2   
    24    11    17 1   
    25    11    18 1   
    26    12    13 1   
    27    12    31 1   
    28    12    32 1   
    29    13    20 1   
    30    13    26 1   
    31    16    27 1   
    32    17    28 1   
    33    18    29 1   
    34    18    30 1   
@<TRIPOS>SUBSTRUCTURE
     1 7PM         1 TEMP              0 ****  ****    0 ROOT
