@<TRIPOS>MOLECULE
7PM
   32    34     1     0     0
SMALL
abcg2


@<TRIPOS>ATOM
      1 C1           6.0830    -0.4110    -0.2510 ca         1 7PM      -0.135000
      2 C2           5.5680     0.3910    -1.2590 ca         1 7PM      -0.127000
      3 C3           5.2240    -0.9710     0.6880 ca         1 7PM      -0.127000
      4 C4           4.2010     0.6310    -1.3280 ca         1 7PM      -0.094500
      5 C5           3.8610    -0.7290     0.6190 ca         1 7PM      -0.094500
      6 C6           3.3350     0.0790    -0.3900 ca         1 7PM      -0.023300
      7 C7          -2.4900     0.2210    -0.8130 cc         1 7PM       0.106500
      8 C8          -2.7060    -0.8990    -0.0280 cd         1 7PM       0.121400
      9 C9          -0.6210    -0.7630    -0.6970 cd         1 7PM       0.567800
     10 C10         -3.5820     1.0940    -1.0740 c          1 7PM       0.522500
     11 C11         -4.8550    -0.5010     0.3120 cc         1 7PM       0.719800
     12 C12          1.3540     0.9860     0.8700 c          1 7PM       0.736000
     13 C13          1.8570     0.3530    -0.4600 c3         1 7PM      -0.010400
     14 N14         -1.1850     0.2790    -1.2320 nc         1 7PM      -0.587000
     15 N15         -3.8450    -1.3020     0.5520 nd         1 7PM      -0.699100
     16 N16         -1.5010    -1.5140     0.0360 na         1 7PM      -0.271500
     17 N17         -4.7470     0.6260    -0.4510 ns         1 7PM      -0.459400
     18 N18         -6.0660    -0.7880     0.8050 nv         1 7PM      -1.072200
     19 O20         -3.6030     2.1220    -1.7330 o          1 7PM      -0.537000
     20 S22          1.0490    -1.2370    -0.8560 ss         1 7PM      -0.410300
     21 H1           7.1470    -0.6030    -0.1970 ha         1 7PM       0.089000
     22 H2           6.2280     0.8310    -1.9960 ha         1 7PM       0.093000
     23 H3           5.6200    -1.5950     1.4790 ha         1 7PM       0.093000
     24 H4           3.8030     1.2530    -2.1210 ha         1 7PM       0.125500
     25 H5           3.1970    -1.1650     1.3550 ha         1 7PM       0.125500
     26 H6           1.6610     1.0410    -1.2830 h1         1 7PM       0.082700
     27 H8          -1.2790    -2.3400     0.5710 hn         1 7PM       0.369000
     28 H9          -5.5760     1.1870    -0.5980 hn         1 7PM       0.306500
     29 H10         -6.1540    -1.5590     1.4440 hn         1 7PM       0.496000
     30 H11         -6.8280    -0.1350     0.7600 hn         1 7PM       0.496000
     31 O19          1.5800     2.2060     0.9500 o          1 7PM      -0.700000
     32 O21          0.8320     0.2410     1.7100 o          1 7PM      -0.700000
@<TRIPOS>BOND
     1     1     2 ar  
     2     1     3 ar  
     3     1    21 1   
     4     2     4 ar  
     5     2    22 1   
     6     3     5 ar  
     7     3    23 1   
     8     4     6 ar  
     9     4    24 1   
    10     5     6 ar  
    11     5    25 1   
    12     6    13 1   
    13     7     8 2   
    14     7    10 1   
    15     7    14 1   
    16     8    15 1   
    17     8    16 1   
    18     9    14 2   
    19     9    16 1   
    20     9    20 1   
    21    10    17 1   
    22    10    19 2   
    23    11    15 2   
    24    11    17 1   
    25    11    18 1   
    26    12    13 1   
    27    12    31 1   
    28    12    32 1   
    29    13    20 1   
    30    13    26 1   
    31    16    27 1   
    32    17    28 1   
    33    18    29 1   
    34    18    30 1   
@<TRIPOS>SUBSTRUCTURE
     1 7PM         1 TEMP              0 ****  ****    0 ROOT
