@<TRIPOS>MOLECULE
7PN
   36    39     1     0     0
SMALL
abcg2


@<TRIPOS>ATOM
      1 N1         101.2540   103.2330   101.1380 ns         1 7PN      -0.161000
      2 C2          99.3680   104.5530   100.3340 ca         1 7PN      -0.029000
      3 C3          97.6020   106.0660    99.4870 ca         1 7PN      -0.066300
      4 C4          99.7500   106.9300    99.7430 ca         1 7PN      -0.075300
      5 C7          97.4970   107.5050    99.0530 c5         1 7PN      -0.031100
      6 C8          96.6780   105.0600    99.5680 ca         1 7PN      -0.102000
      7 C9          98.9290   108.0820    99.2250 c5         1 7PN      -0.029100
      8 C10        101.0710   106.8160   100.0840 ca         1 7PN      -0.090000
      9 C11         97.0960   103.7910   100.0370 ca         1 7PN      -0.099000
     10 C12        101.5550   105.5690   100.5410 ca         1 7PN      -0.092000
     11 C13        101.9300   103.0740   102.3020 c          1 7PN       0.620700
     12 C15        103.4610   101.4970   103.4280 ca         1 7PN      -0.045500
     13 C18        101.9780    99.2810   102.6470 ca         1 7PN      -0.162500
     14 C19        101.5840   100.5540   102.2630 ca         1 7PN      -0.045500
     15 C1          98.9280   105.8000    99.8670 ca         1 7PN      -0.052000
     16 O1         102.2270   104.0020   103.0340 o          1 7PN      -0.579100
     17 C5          98.3920   103.5300   100.4140 ca         1 7PN      -0.105000
     18 C6         100.7440   104.4640   100.6760 ca         1 7PN      -0.041000
     19 C14        102.3220   101.6740   102.6430 ca         1 7PN      -0.170600
     20 C16        103.8750   100.2330   103.8080 ca         1 7PN      -0.162500
     21 C17        103.1220    99.1450   103.4100 ca         1 7PN       0.194000
     22 F1         103.5130    97.9220   103.7850 f          1 7PN      -0.173000
     23 H10        101.0740   102.4210   100.5670 hn         1 7PN       0.157000
     24 H3          97.1540   107.5840    98.0200 hc         1 7PN       0.056700
     25 H4          95.6430   105.2120    99.2870 ha         1 7PN       0.116000
     26 H5          99.3260   108.4600    98.2810 hc         1 7PN       0.056700
     27 H6          98.9420   108.9220    99.9230 hc         1 7PN       0.056700
     28 H7         101.7560   107.6510   100.0050 ha         1 7PN       0.119000
     29 H8          96.3620   102.9970   100.1050 ha         1 7PN       0.110000
     30 H9         102.6060   105.4830   100.7810 ha         1 7PN       0.127000
     31 H11        104.0380   102.3560   103.7420 ha         1 7PN       0.127000
     32 H13        101.3990    98.4130   102.3620 ha         1 7PN       0.136500
     33 H14        100.6720   100.6520   101.6880 ha         1 7PN       0.127000
     34 H1          98.6550   102.5440   100.7750 ha         1 7PN       0.108000
     35 H12        104.7650   100.0950   104.4080 ha         1 7PN       0.136500
     36 H2          96.7710   108.0480    99.6610 hc         1 7PN       0.056700
@<TRIPOS>BOND
     1     1    11 1   
     2     1    18 1   
     3     1    23 1   
     4     2    15 ar  
     5     2    17 ar  
     6     2    18 ar  
     7     3     5 1   
     8     3     6 ar  
     9     3    15 ar  
    10     4     7 1   
    11     4     8 ar  
    12     4    15 ar  
    13     5     7 1   
    14     5    24 1   
    15     5    36 1   
    16     6     9 ar  
    17     6    25 1   
    18     7    26 1   
    19     7    27 1   
    20     8    10 ar  
    21     8    28 1   
    22     9    17 ar  
    23     9    29 1   
    24    10    18 ar  
    25    10    30 1   
    26    11    16 2   
    27    11    19 1   
    28    12    19 ar  
    29    12    20 ar  
    30    12    31 1   
    31    13    14 ar  
    32    13    21 ar  
    33    13    32 1   
    34    14    19 ar  
    35    14    33 1   
    36    17    34 1   
    37    20    21 ar  
    38    20    35 1   
    39    21    22 1   
@<TRIPOS>SUBSTRUCTURE
     1 7PN         1 TEMP              0 ****  ****    0 ROOT
