@<TRIPOS>MOLECULE
7PN
   36    39     1     0     0
SMALL
No Charge or Current Charge


@<TRIPOS>ATOM
      1 N1         101.1890   103.4080   101.4950 ns         1 7PN      -0.161000
      2 C2          99.3470   104.6460   100.4590 ca         1 7PN      -0.029000
      3 C3          97.6180   106.0190    99.4030 ca         1 7PN      -0.066300
      4 C4          99.6350   106.9660    99.7470 ca         1 7PN      -0.075300
      5 C7          97.4210   107.4250    98.8470 c5         1 7PN      -0.031100
      6 C8          96.6970   104.9610    99.4640 ca         1 7PN      -0.102000
      7 C9          98.8490   108.0950    99.0900 c5         1 7PN      -0.029100
      8 C10        100.9660   106.9600   100.1880 ca         1 7PN      -0.090000
      9 C11         97.1120   103.7340   100.0320 ca         1 7PN      -0.099000
     10 C12        101.4880   105.7810   100.7720 ca         1 7PN      -0.092000
     11 C13        102.3170   103.1370   102.2620 c          1 7PN       0.620700
     12 C15        103.6460   101.3260   103.4330 ca         1 7PN      -0.045500
     13 C18        101.8900    99.3140   102.5670 ca         1 7PN      -0.162500
     14 C19        101.6550   100.6520   102.2020 ca         1 7PN      -0.045500
     15 C1          98.8840   105.8320    99.8920 ca         1 7PN      -0.052000
     16 O1         103.0950   104.0080   102.6380 o          1 7PN      -0.579100
     17 C5          98.4300   103.5710   100.5300 ca         1 7PN      -0.105000
     18 C6         100.6870   104.6120   100.9230 ca         1 7PN      -0.041000
     19 C14        102.5330   101.6800   102.6330 ca         1 7PN      -0.170600
     20 C16        103.8740    99.9870   103.7950 ca         1 7PN      -0.162500
     21 C17        102.9970    98.9860   103.3610 ca         1 7PN       0.194000
     22 F1         103.2180    97.7000   103.7090 f          1 7PN      -0.173000
     23 H10        100.6200   102.5970   101.2970 hn         1 7PN       0.157000
     24 H3          97.1580   107.4100    97.7830 hc         1 7PN       0.056700
     25 H4          95.6860   105.0830    99.0840 ha         1 7PN       0.116000
     26 H5          99.3090   108.4180    98.1490 hc         1 7PN       0.056700
     27 H6          98.7770   108.9750    99.7390 hc         1 7PN       0.056700
     28 H7         101.5880   107.8450   100.0770 ha         1 7PN       0.119000
     29 H8          96.4100   102.9040   100.0890 ha         1 7PN       0.110000
     30 H9         102.5260   105.7920   101.0880 ha         1 7PN       0.127000
     31 H11        104.3400   102.0900   103.7810 ha         1 7PN       0.127000
     32 H13        101.2140    98.5310   102.2340 ha         1 7PN       0.136500
     33 H14        100.7870   100.8670   101.5820 ha         1 7PN       0.127000
     34 H1          98.7160   102.6170   100.9640 ha         1 7PN       0.108000
     35 H12        104.7310    99.7260   104.4100 ha         1 7PN       0.136500
     36 H2          96.6270   107.9650    99.3740 hc         1 7PN       0.056700
@<TRIPOS>BOND
     1     1    11 1   
     2     1    18 1   
     3     1    23 1   
     4     2    15 ar  
     5     2    17 ar  
     6     2    18 ar  
     7     3     5 1   
     8     3     6 ar  
     9     3    15 ar  
    10     4     7 1   
    11     4     8 ar  
    12     4    15 ar  
    13     5     7 1   
    14     5    24 1   
    15     5    36 1   
    16     6     9 ar  
    17     6    25 1   
    18     7    26 1   
    19     7    27 1   
    20     8    10 ar  
    21     8    28 1   
    22     9    17 ar  
    23     9    29 1   
    24    10    18 ar  
    25    10    30 1   
    26    11    16 2   
    27    11    19 1   
    28    12    19 ar  
    29    12    20 ar  
    30    12    31 1   
    31    13    14 ar  
    32    13    21 ar  
    33    13    32 1   
    34    14    19 ar  
    35    14    33 1   
    36    17    34 1   
    37    20    21 ar  
    38    20    35 1   
    39    21    22 1   
@<TRIPOS>SUBSTRUCTURE
     1 7PN         1 TEMP              0 ****  ****    0 ROOT
