@<TRIPOS>MOLECULE
7PO
   79    78     1     0     0
SMALL
abcg2


@<TRIPOS>ATOM
      1 C10        179.6900   162.8440   136.1940 c3         1 7PO      -0.074400
      2 C13        175.7920   162.4310   136.2820 c3         1 7PO      -0.075400
      3 C15        173.3290   162.1120   136.8580 c3         1 7PO      -0.073400
      4 C17        172.0000   163.1720   138.7840 c3         1 7PO      -0.074400
      5 C20        168.4460   162.5740   140.3900 c3         1 7PO      -0.075400
      6 C21        168.1560   163.8060   141.2470 c3         1 7PO      -0.076400
      7 C22        167.0420   163.5810   142.2670 c3         1 7PO      -0.076400
      8 C24        165.6070   164.5900   144.1250 c3         1 7PO      -0.054400
      9 C26        164.1590   165.7140   145.9860 c          1 7PO       0.709000
     10 C01        190.5830   163.7660   132.5600 c3         1 7PO      -0.088100
     11 C02        189.5650   163.6670   133.6940 c3         1 7PO      -0.075400
     12 C03        188.1230   163.5890   133.1990 c3         1 7PO      -0.075400
     13 C04        187.0960   163.4900   134.3250 c3         1 7PO      -0.074400
     14 C05        185.6550   163.4010   133.8290 c3         1 7PO      -0.074400
     15 C06        184.6280   163.2930   134.9530 c3         1 7PO      -0.074400
     16 C07        183.1880   163.1950   134.4550 c3         1 7PO      -0.074400
     17 C08        182.1590   163.0810   135.5780 c3         1 7PO      -0.074400
     18 C09        180.7220   162.9670   135.0750 c3         1 7PO      -0.074400
     19 C11        178.2570   162.7150   135.6850 c3         1 7PO      -0.074400
     20 C12        177.2210   162.5810   136.7980 c3         1 7PO      -0.074400
     21 C14        174.7500   162.3000   137.3910 c3         1 7PO      -0.075400
     22 C16        172.2600   161.9240   137.9380 c3         1 7PO      -0.074400
     23 C18        170.9250   162.9940   139.8610 c3         1 7PO      -0.075400
     24 C19        169.5120   162.7830   139.3120 c3         1 7PO      -0.072400
     25 C23        166.7290   164.8140   143.1130 c3         1 7PO      -0.078400
     26 C25        165.2950   165.8320   144.9500 c3         1 7PO      -0.199400
     27 O27        163.9170   166.7540   146.6570 o          1 7PO      -0.745500
     28 O28        163.5560   164.6160   146.0970 o          1 7PO      -0.745500
     29 H1         179.9320   161.9740   136.8140 hc         1 7PO       0.037200
     30 H2         179.7630   163.7190   136.8510 hc         1 7PO       0.037200
     31 H3         175.5420   163.2940   135.6540 hc         1 7PO       0.034700
     32 H4         175.7360   161.5520   135.6280 hc         1 7PO       0.034700
     33 H5         173.0610   162.9730   136.2330 hc         1 7PO       0.034200
     34 H6         173.3220   161.2410   136.1940 hc         1 7PO       0.034200
     35 H7         172.9300   163.4810   139.2680 hc         1 7PO       0.034700
     36 H8         171.7110   163.9960   138.1200 hc         1 7PO       0.034700
     37 H9         167.5130   162.2600   139.9100 hc         1 7PO       0.035700
     38 H10        168.7480   161.7440   141.0400 hc         1 7PO       0.035700
     39 H11        169.0630   164.1190   141.7740 hc         1 7PO       0.032200
     40 H12        167.8810   164.6390   140.5890 hc         1 7PO       0.032200
     41 H13        166.1320   163.2660   141.7440 hc         1 7PO       0.033700
     42 H14        167.3180   162.7500   142.9260 hc         1 7PO       0.033700
     43 H15        164.7030   164.2660   143.6000 hc         1 7PO       0.038200
     44 H16        165.8810   163.7650   144.7910 hc         1 7PO       0.038200
     45 H17        191.6050   163.8210   132.9420 hc         1 7PO       0.031033
     46 H18        190.5190   162.8960   131.9000 hc         1 7PO       0.031033
     47 H19        190.4040   164.6570   131.9520 hc         1 7PO       0.031033
     48 H20        189.7820   162.7850   134.3060 hc         1 7PO       0.036700
     49 H21        189.6710   164.5330   134.3560 hc         1 7PO       0.036700
     50 H22        187.9040   164.4710   132.5860 hc         1 7PO       0.036700
     51 H23        188.0160   162.7220   132.5360 hc         1 7PO       0.036700
     52 H24        187.3200   162.6120   134.9410 hc         1 7PO       0.036700
     53 H25        187.1980   164.3610   134.9830 hc         1 7PO       0.036700
     54 H26        185.4280   164.2820   133.2170 hc         1 7PO       0.036700
     55 H27        185.5560   162.5340   133.1650 hc         1 7PO       0.036700
     56 H28        184.8570   162.4140   135.5670 hc         1 7PO       0.037200
     57 H29        184.7240   164.1610   135.6150 hc         1 7PO       0.037200
     58 H30        182.9580   164.0750   133.8430 hc         1 7PO       0.036700
     59 H31        183.0950   162.3280   133.7920 hc         1 7PO       0.036700
     60 H32        182.3950   162.2070   136.1960 hc         1 7PO       0.037200
     61 H33        182.2450   163.9540   136.2360 hc         1 7PO       0.037200
     62 H34        180.4840   163.8410   134.4590 hc         1 7PO       0.036200
     63 H35        180.6420   162.0960   134.4140 hc         1 7PO       0.036200
     64 H36        178.0120   163.5870   135.0680 hc         1 7PO       0.036200
     65 H37        178.1890   161.8440   135.0220 hc         1 7PO       0.036200
     66 H38        177.4710   161.7150   137.4220 hc         1 7PO       0.037700
     67 H39        177.2790   163.4580   137.4530 hc         1 7PO       0.037700
     68 H40        175.0060   161.4480   138.0300 hc         1 7PO       0.038700
     69 H41        174.7970   163.1880   138.0290 hc         1 7PO       0.038700
     70 H42        171.3300   161.6140   137.4540 hc         1 7PO       0.038700
     71 H43        172.5530   161.0980   138.5970 hc         1 7PO       0.038700
     72 H44        171.1900   162.1430   140.4990 hc         1 7PO       0.040700
     73 H45        170.9330   163.8750   140.5080 hc         1 7PO       0.040700
     74 H46        169.2360   163.6460   138.6950 hc         1 7PO       0.031700
     75 H47        169.5100   161.9170   138.6450 hc         1 7PO       0.031700
     76 H48        167.6360   165.1310   143.6410 hc         1 7PO       0.023700
     77 H49        166.4580   165.6440   142.4490 hc         1 7PO       0.023700
     78 H50        166.1900   166.1610   145.4890 hc         1 7PO       0.016700
     79 H51        165.0360   166.6630   144.2840 hc         1 7PO       0.016700
@<TRIPOS>BOND
     1     1    18 1   
     2     1    19 1   
     3     1    29 1   
     4     1    30 1   
     5     2    20 1   
     6     2    21 1   
     7     2    31 1   
     8     2    32 1   
     9     3    21 1   
    10     3    22 1   
    11     3    33 1   
    12     3    34 1   
    13     4    22 1   
    14     4    23 1   
    15     4    35 1   
    16     4    36 1   
    17     5     6 1   
    18     5    24 1   
    19     5    37 1   
    20     5    38 1   
    21     6     7 1   
    22     6    39 1   
    23     6    40 1   
    24     7    25 1   
    25     7    41 1   
    26     7    42 1   
    27     8    25 1   
    28     8    26 1   
    29     8    43 1   
    30     8    44 1   
    31     9    26 1   
    32     9    27 1   
    33     9    28 1   
    34    10    11 1   
    35    10    45 1   
    36    10    46 1   
    37    10    47 1   
    38    11    12 1   
    39    11    48 1   
    40    11    49 1   
    41    12    13 1   
    42    12    50 1   
    43    12    51 1   
    44    13    14 1   
    45    13    52 1   
    46    13    53 1   
    47    14    15 1   
    48    14    54 1   
    49    14    55 1   
    50    15    16 1   
    51    15    56 1   
    52    15    57 1   
    53    16    17 1   
    54    16    58 1   
    55    16    59 1   
    56    17    18 1   
    57    17    60 1   
    58    17    61 1   
    59    18    62 1   
    60    18    63 1   
    61    19    20 1   
    62    19    64 1   
    63    19    65 1   
    64    20    66 1   
    65    20    67 1   
    66    21    68 1   
    67    21    69 1   
    68    22    70 1   
    69    22    71 1   
    70    23    24 1   
    71    23    72 1   
    72    23    73 1   
    73    24    74 1   
    74    24    75 1   
    75    25    76 1   
    76    25    77 1   
    77    26    78 1   
    78    26    79 1   
@<TRIPOS>SUBSTRUCTURE
     1 7PO         1 TEMP              0 ****  ****    0 ROOT
