@<TRIPOS>MOLECULE
7PO
   79    78     1     0     0
SMALL
No Charge or Current Charge


@<TRIPOS>ATOM
      1 C10        179.6700   162.7750   136.1150 c3         1 7PO      -0.074400
      2 C13        175.7350   162.3550   136.1540 c3         1 7PO      -0.075400
      3 C15        173.2360   162.1030   136.7300 c3         1 7PO      -0.073400
      4 C17        171.9320   163.1470   138.7280 c3         1 7PO      -0.074400
      5 C20        168.3280   162.6310   140.3750 c3         1 7PO      -0.075400
      6 C21        168.1260   163.8590   141.2950 c3         1 7PO      -0.076400
      7 C22        166.9780   163.6670   142.3100 c3         1 7PO      -0.076400
      8 C24        165.6260   164.6980   144.2480 c3         1 7PO      -0.054400
      9 C26        164.2640   165.6590   146.1550 c          1 7PO       0.709000
     10 C01        190.7170   163.8810   132.6790 c3         1 7PO      -0.088100
     11 C02        189.6590   163.7920   133.7960 c3         1 7PO      -0.075400
     12 C03        188.2220   163.6280   133.2560 c3         1 7PO      -0.075400
     13 C04        187.1620   163.5380   134.3760 c3         1 7PO      -0.074400
     14 C05        185.7240   163.3740   133.8360 c3         1 7PO      -0.074400
     15 C06        184.6640   163.2840   134.9560 c3         1 7PO      -0.074400
     16 C07        183.2270   163.1200   134.4160 c3         1 7PO      -0.074400
     17 C08        182.1670   163.0290   135.5360 c3         1 7PO      -0.074400
     18 C09        180.7300   162.8650   134.9950 c3         1 7PO      -0.074400
     19 C11        178.2320   162.6110   135.5750 c3         1 7PO      -0.074400
     20 C12        177.1730   162.5200   136.6950 c3         1 7PO      -0.074400
     21 C14        174.6750   162.2640   137.2740 c3         1 7PO      -0.075400
     22 C16        172.1530   161.9110   137.8180 c3         1 7PO      -0.074400
     23 C18        170.8520   162.9570   139.8210 c3         1 7PO      -0.075400
     24 C19        169.4060   162.8170   139.2800 c3         1 7PO      -0.072400
     25 C23        166.7750   164.8890   143.2330 c3         1 7PO      -0.078400
     26 C25        165.4210   165.9220   145.1740 c3         1 7PO      -0.199400
     27 O27        163.1320   165.9570   145.8070 o          1 7PO      -0.745500
     28 O28        164.5220   165.1200   147.2210 o          1 7PO      -0.745500
     29 H1         179.9080   161.9260   136.7690 hc         1 7PO       0.037200
     30 H2         179.7210   163.6800   136.7340 hc         1 7PO       0.037200
     31 H3         175.4970   163.2050   135.5020 hc         1 7PO       0.034700
     32 H4         175.6850   161.4510   135.5350 hc         1 7PO       0.034700
     33 H5         172.9800   162.9740   136.1140 hc         1 7PO       0.034200
     34 H6         173.2090   161.2310   136.0630 hc         1 7PO       0.034200
     35 H7         172.8740   163.3950   139.2310 hc         1 7PO       0.034700
     36 H8         171.6700   164.0140   138.1090 hc         1 7PO       0.034700
     37 H9         167.3750   162.4020   139.8820 hc         1 7PO       0.035700
     38 H10        168.5810   161.7560   140.9860 hc         1 7PO       0.035700
     39 H11        169.0510   164.0620   141.8470 hc         1 7PO       0.032200
     40 H12        167.9170   164.7410   140.6780 hc         1 7PO       0.032200
     41 H13        166.0460   163.4680   141.7670 hc         1 7PO       0.033700
     42 H14        167.1850   162.7820   142.9250 hc         1 7PO       0.033700
     43 H15        164.6950   164.4970   143.7040 hc         1 7PO       0.038200
     44 H16        165.8330   163.8120   144.8620 hc         1 7PO       0.038200
     45 H17        191.7190   163.9970   133.1100 hc         1 7PO       0.031033
     46 H18        190.7100   162.9730   132.0640 hc         1 7PO       0.031033
     47 H19        190.5220   164.7420   132.0280 hc         1 7PO       0.031033
     48 H20        189.9020   162.9440   134.4490 hc         1 7PO       0.036700
     49 H21        189.7150   164.6970   134.4130 hc         1 7PO       0.036700
     50 H22        187.9840   164.4760   132.6020 hc         1 7PO       0.036700
     51 H23        188.1700   162.7230   132.6380 hc         1 7PO       0.036700
     52 H24        187.4000   162.6890   135.0300 hc         1 7PO       0.036700
     53 H25        187.2130   164.4430   134.9940 hc         1 7PO       0.036700
     54 H26        185.4860   164.2230   133.1820 hc         1 7PO       0.036700
     55 H27        185.6730   162.4690   133.2180 hc         1 7PO       0.036700
     56 H28        184.9030   162.4350   135.6090 hc         1 7PO       0.037200
     57 H29        184.7160   164.1890   135.5740 hc         1 7PO       0.037200
     58 H30        182.9890   163.9690   133.7620 hc         1 7PO       0.036700
     59 H31        183.1760   162.2150   133.7970 hc         1 7PO       0.036700
     60 H32        182.4050   162.1810   136.1890 hc         1 7PO       0.037200
     61 H33        182.2190   163.9340   136.1540 hc         1 7PO       0.037200
     62 H34        180.4910   163.7140   134.3420 hc         1 7PO       0.036200
     63 H35        180.6780   161.9610   134.3770 hc         1 7PO       0.036200
     64 H36        177.9940   163.4600   134.9220 hc         1 7PO       0.036200
     65 H37        178.1810   161.7060   134.9560 hc         1 7PO       0.036200
     66 H38        177.4110   161.6710   137.3480 hc         1 7PO       0.037700
     67 H39        177.2240   163.4240   137.3130 hc         1 7PO       0.037700
     68 H40        174.9120   161.4130   137.9250 hc         1 7PO       0.038700
     69 H41        174.7370   163.1680   137.8910 hc         1 7PO       0.038700
     70 H42        171.2130   161.6640   137.3120 hc         1 7PO       0.038700
     71 H43        172.4130   161.0440   138.4380 hc         1 7PO       0.038700
     72 H44        171.1020   162.0770   140.4260 hc         1 7PO       0.040700
     73 H45        170.9020   163.8220   140.4910 hc         1 7PO       0.040700
     74 H46        169.1570   163.6970   138.6740 hc         1 7PO       0.031700
     75 H47        169.3540   161.9500   138.6120 hc         1 7PO       0.031700
     76 H48        167.7070   165.0880   143.7760 hc         1 7PO       0.023700
     77 H49        166.5680   165.7730   142.6170 hc         1 7PO       0.023700
     78 H50        166.3650   166.0480   145.7190 hc         1 7PO       0.016700
     79 H51        165.1780   166.7620   144.5120 hc         1 7PO       0.016700
@<TRIPOS>BOND
     1     1    18 1   
     2     1    19 1   
     3     1    29 1   
     4     1    30 1   
     5     2    20 1   
     6     2    21 1   
     7     2    31 1   
     8     2    32 1   
     9     3    21 1   
    10     3    22 1   
    11     3    33 1   
    12     3    34 1   
    13     4    22 1   
    14     4    23 1   
    15     4    35 1   
    16     4    36 1   
    17     5     6 1   
    18     5    24 1   
    19     5    37 1   
    20     5    38 1   
    21     6     7 1   
    22     6    39 1   
    23     6    40 1   
    24     7    25 1   
    25     7    41 1   
    26     7    42 1   
    27     8    25 1   
    28     8    26 1   
    29     8    43 1   
    30     8    44 1   
    31     9    26 1   
    32     9    27 1   
    33     9    28 1   
    34    10    11 1   
    35    10    45 1   
    36    10    46 1   
    37    10    47 1   
    38    11    12 1   
    39    11    48 1   
    40    11    49 1   
    41    12    13 1   
    42    12    50 1   
    43    12    51 1   
    44    13    14 1   
    45    13    52 1   
    46    13    53 1   
    47    14    15 1   
    48    14    54 1   
    49    14    55 1   
    50    15    16 1   
    51    15    56 1   
    52    15    57 1   
    53    16    17 1   
    54    16    58 1   
    55    16    59 1   
    56    17    18 1   
    57    17    60 1   
    58    17    61 1   
    59    18    62 1   
    60    18    63 1   
    61    19    20 1   
    62    19    64 1   
    63    19    65 1   
    64    20    66 1   
    65    20    67 1   
    66    21    68 1   
    67    21    69 1   
    68    22    70 1   
    69    22    71 1   
    70    23    24 1   
    71    23    72 1   
    72    23    73 1   
    73    24    74 1   
    74    24    75 1   
    75    25    76 1   
    76    25    77 1   
    77    26    78 1   
    78    26    79 1   
@<TRIPOS>SUBSTRUCTURE
     1 7PO         1 TEMP              0 ****  ****    0 ROOT
