@<TRIPOS>MOLECULE
7PP
   53    55     1     0     0
SMALL
No Charge or Current Charge


@<TRIPOS>ATOM
      1 Cl          -2.7120     2.6370     0.0530 cl         1 7PP      -0.156000
      2 C1          -1.2170     2.0270    -0.6490 ca         1 7PP       0.304000
      3 N5          -0.3850     2.9390    -1.1940 nb         1 7PP      -0.261000
      4 C21          0.7520     2.4560    -1.7270 ca         1 7PP       0.402900
      5 N4           1.5870     3.3710    -2.2750 nv         1 7PP      -1.055900
      6 N3           1.1600     1.1750    -1.7820 nb         1 7PP      -0.267000
      7 C20          0.3200     0.2760    -1.2340 ca         1 7PP       0.188500
      8 C2          -0.8680     0.6650    -0.6640 ca         1 7PP      -0.219800
      9 N1           0.3990    -1.1050    -1.1090 na         1 7PP      -0.170400
     10 C11          1.5680    -1.8650    -1.6000 c3         1 7PP       0.033300
     11 C12          2.7320    -1.9380    -0.6040 ca         1 7PP       0.326300
     12 C18          4.0170    -1.3990    -0.8750 ca         1 7PP      -0.135300
     13 C19          4.3340    -0.7240    -2.2150 c3         1 7PP      -0.045800
     14 C16          5.0050    -1.5160     0.1310 ca         1 7PP       0.135100
     15 O2           6.2650    -0.9980    -0.0520 os         1 7PP      -0.363100
     16 C17          6.4980     0.3880     0.2470 c3         1 7PP       0.150900
     17 C14          4.7000    -2.1810     1.3310 ca         1 7PP      -0.135300
     18 C15          5.7380    -2.3480     2.4370 c3         1 7PP      -0.036800
     19 C13          3.4040    -2.6950     1.4910 ca         1 7PP       0.346900
     20 N2           2.4420    -2.5800     0.5540 nb         1 7PP      -0.653000
     21 C10         -0.7320    -1.6270    -0.4540 cc         1 7PP      -0.130100
     22 C3          -1.5280    -0.5280    -0.1740 cd         1 7PP       0.059100
     23 C4          -2.7750    -0.6380     0.4910 ch         1 7PP      -0.120300
     24 C5          -3.8490    -0.7440     1.0470 c1         1 7PP      -0.120100
     25 C6          -5.1630    -0.8790     1.7000 c3         1 7PP      -0.015300
     26 C7          -6.2510    -1.5880     0.8350 c3         1 7PP       0.188000
     27 C9          -5.8590    -3.0450     0.4820 c3         1 7PP      -0.102600
     28 C8          -7.6130    -1.5680     1.5660 c3         1 7PP      -0.102600
     29 O1          -6.4140    -0.8670    -0.3900 oh         1 7PP      -0.653000
     30 HN4          1.4310     4.3550    -2.0700 hn         1 7PP       0.492500
     31 HN4A         2.5390     3.0920    -2.4980 hn         1 7PP       0.492500
     32 H11          1.2420    -2.8880    -1.8220 h1         1 7PP       0.077200
     33 H11A         1.8860    -1.4260    -2.5510 h1         1 7PP       0.077200
     34 H19          3.7860     0.2180    -2.3220 hc         1 7PP       0.048700
     35 H19A         5.3990    -0.4950    -2.3370 hc         1 7PP       0.048700
     36 H19B         4.0640    -1.3710    -3.0580 hc         1 7PP       0.048700
     37 H17          5.8600     1.0330    -0.3700 h1         1 7PP       0.038367
     38 H17A         6.2830     0.5980     1.3030 h1         1 7PP       0.038367
     39 H17B         7.5450     0.6510     0.0510 h1         1 7PP       0.038367
     40 H15          5.9710    -1.3840     2.9060 hc         1 7PP       0.047367
     41 H15A         5.3860    -3.0230     3.2260 hc         1 7PP       0.047367
     42 H15B         6.6730    -2.7640     2.0430 hc         1 7PP       0.047367
     43 H13          3.1220    -3.2180     2.4040 h4         1 7PP       0.024100
     44 H10         -0.8710    -2.6810    -0.2430 h4         1 7PP       0.225000
     45 H6          -5.0300    -1.4290     2.6390 hc         1 7PP       0.058200
     46 H6A         -5.5130     0.1240     1.9750 hc         1 7PP       0.058200
     47 H9          -5.7030    -3.6350     1.3930 hc         1 7PP       0.043200
     48 H9A         -6.6500    -3.5300    -0.1030 hc         1 7PP       0.043200
     49 H9B         -4.9370    -3.0830    -0.1090 hc         1 7PP       0.043200
     50 H8          -7.9260    -0.5390     1.7860 hc         1 7PP       0.043200
     51 H8A         -8.3940    -2.0360     0.9540 hc         1 7PP       0.043200
     52 H8B         -7.5520    -2.1150     2.5150 hc         1 7PP       0.043200
     53 HO1         -5.5080    -0.6560    -0.7060 ho         1 7PP       0.441000
@<TRIPOS>BOND
     1     1     2 1   
     2     2     3 ar  
     3     2     8 ar  
     4     3     4 ar  
     5     4     5 1   
     6     4     6 ar  
     7     5    30 1   
     8     5    31 1   
     9     6     7 ar  
    10     7     8 ar  
    11     7     9 1   
    12     8    22 1   
    13     9    10 1   
    14     9    21 1   
    15    10    11 1   
    16    10    32 1   
    17    10    33 1   
    18    11    12 ar  
    19    11    20 ar  
    20    12    13 1   
    21    12    14 ar  
    22    13    34 1   
    23    13    35 1   
    24    13    36 1   
    25    14    15 1   
    26    14    17 ar  
    27    15    16 1   
    28    16    37 1   
    29    16    38 1   
    30    16    39 1   
    31    17    18 1   
    32    17    19 ar  
    33    18    40 1   
    34    18    41 1   
    35    18    42 1   
    36    19    20 ar  
    37    19    43 1   
    38    21    22 2   
    39    21    44 1   
    40    22    23 1   
    41    23    24 3   
    42    24    25 1   
    43    25    26 1   
    44    25    45 1   
    45    25    46 1   
    46    26    27 1   
    47    26    28 1   
    48    26    29 1   
    49    27    47 1   
    50    27    48 1   
    51    27    49 1   
    52    28    50 1   
    53    28    51 1   
    54    28    52 1   
    55    29    53 1   
@<TRIPOS>SUBSTRUCTURE
     1 7PP         1 TEMP              0 ****  ****    0 ROOT
