@<TRIPOS>MOLECULE
7PP
   53    55     1     0     0
SMALL
abcg2


@<TRIPOS>ATOM
      1 CL          -2.7470     3.1120     0.8030 cl         1 7PP      -0.156000
      2 C1          -1.2510     2.6820     0.0550 ca         1 7PP       0.304000
      3 N5          -0.3780     3.6370    -0.1110 nb         1 7PP      -0.261000
      4 C21          0.8000     3.3230    -0.6930 ca         1 7PP       0.402900
      5 N4           1.6610     4.3450    -0.8800 nv         1 7PP      -1.055900
      6 N3           1.1590     2.1160    -1.1150 nb         1 7PP      -0.267000
      7 C20          0.2400     1.1850    -0.9280 ca         1 7PP       0.188500
      8 C2          -1.0230     1.3740    -0.3350 ca         1 7PP      -0.219800
      9 N1           0.3460    -0.1170    -1.2810 na         1 7PP      -0.170400
     10 C11          1.5390    -0.7410    -1.7840 c3         1 7PP       0.033300
     11 C12          2.5160    -1.0950    -0.6850 ca         1 7PP       0.326300
     12 C18          3.7560    -1.6470    -1.0240 ca         1 7PP      -0.135300
     13 C19          4.1230    -1.9110    -2.4540 c3         1 7PP      -0.045800
     14 C16          4.6210    -1.9350     0.0290 ca         1 7PP       0.135100
     15 O2           5.8400    -2.4830    -0.2110 os         1 7PP      -0.363100
     16 C17          6.8560    -1.5410    -0.5360 c3         1 7PP       0.150900
     17 C14          4.2420    -1.6950     1.3510 ca         1 7PP      -0.135300
     18 C15          5.1450    -2.0070     2.5040 c3         1 7PP      -0.036800
     19 C13          2.9780    -1.1610     1.5420 ca         1 7PP       0.346900
     20 N2           2.1390    -0.8610     0.5580 nb         1 7PP      -0.653000
     21 C10         -0.7960    -0.7740    -0.8970 cc         1 7PP      -0.130100
     22 C3          -1.6810     0.0970    -0.3230 cd         1 7PP       0.059100
     23 C4          -2.9710    -0.2250     0.1580 ch         1 7PP      -0.120300
     24 C5          -4.0740    -0.5130     0.5530 c1         1 7PP      -0.120100
     25 C6          -5.4000    -0.8740     1.0290 c3         1 7PP      -0.015300
     26 C7          -5.8080    -2.3130     0.6420 c3         1 7PP       0.188000
     27 C9          -4.8760    -3.3230     1.2940 c3         1 7PP      -0.102600
     28 C8          -7.2470    -2.5510     1.0940 c3         1 7PP      -0.102600
     29 O1          -5.6850    -2.4950    -0.7560 oh         1 7PP      -0.653000
     30 HN4          1.5060     5.1980    -0.3720 hn         1 7PP       0.492500
     31 HN4A         2.6140     4.1290    -1.1160 hn         1 7PP       0.492500
     32 H11          1.2450    -1.6360    -2.3370 h1         1 7PP       0.077200
     33 H11A         2.0070    -0.0710    -2.5080 h1         1 7PP       0.077200
     34 H19          4.3910    -0.9880    -2.9730 hc         1 7PP       0.048700
     35 H19A         4.9670    -2.5920    -2.5350 hc         1 7PP       0.048700
     36 H19B         3.2930    -2.3560    -3.0020 hc         1 7PP       0.048700
     37 H17          6.6330    -1.0070    -1.4630 h1         1 7PP       0.038367
     38 H17A         6.9930    -0.8080     0.2630 h1         1 7PP       0.038367
     39 H17B         7.7810    -2.0990    -0.6650 h1         1 7PP       0.038367
     40 H15          6.0340    -1.3730     2.5050 hc         1 7PP       0.047367
     41 H15A         4.6280    -1.8450     3.4490 hc         1 7PP       0.047367
     42 H15B         5.4870    -3.0410     2.4810 hc         1 7PP       0.047367
     43 H13          2.6290    -0.9600     2.5510 h4         1 7PP       0.024100
     44 H10         -0.9070    -1.8310    -1.0770 h4         1 7PP       0.225000
     45 H6          -5.4460    -0.7670     2.1170 hc         1 7PP       0.058200
     46 H6A         -6.1330    -0.1680     0.6250 hc         1 7PP       0.058200
     47 H9          -4.9250    -3.2380     2.3800 hc         1 7PP       0.043200
     48 H9A         -5.1590    -4.3410     1.0240 hc         1 7PP       0.043200
     49 H9B         -3.8390    -3.1660     0.9910 hc         1 7PP       0.043200
     50 H8          -7.9350    -1.8490     0.6170 hc         1 7PP       0.043200
     51 H8A         -7.5680    -3.5630     0.8440 hc         1 7PP       0.043200
     52 H8B         -7.3470    -2.4250     2.1730 hc         1 7PP       0.043200
     53 HO1         -6.3120    -1.9130    -1.1990 ho         1 7PP       0.441000
@<TRIPOS>BOND
     1     1     2 1   
     2     2     3 ar  
     3     2     8 ar  
     4     3     4 ar  
     5     4     5 1   
     6     4     6 ar  
     7     5    30 1   
     8     5    31 1   
     9     6     7 ar  
    10     7     8 ar  
    11     7     9 1   
    12     8    22 1   
    13     9    10 1   
    14     9    21 1   
    15    10    11 1   
    16    10    32 1   
    17    10    33 1   
    18    11    12 ar  
    19    11    20 ar  
    20    12    13 1   
    21    12    14 ar  
    22    13    34 1   
    23    13    35 1   
    24    13    36 1   
    25    14    15 1   
    26    14    17 ar  
    27    15    16 1   
    28    16    37 1   
    29    16    38 1   
    30    16    39 1   
    31    17    18 1   
    32    17    19 ar  
    33    18    40 1   
    34    18    41 1   
    35    18    42 1   
    36    19    20 ar  
    37    19    43 1   
    38    21    22 2   
    39    21    44 1   
    40    22    23 1   
    41    23    24 3   
    42    24    25 1   
    43    25    26 1   
    44    25    45 1   
    45    25    46 1   
    46    26    27 1   
    47    26    28 1   
    48    26    29 1   
    49    27    47 1   
    50    27    48 1   
    51    27    49 1   
    52    28    50 1   
    53    28    51 1   
    54    28    52 1   
    55    29    53 1   
@<TRIPOS>SUBSTRUCTURE
     1 7PP         1 TEMP              0 ****  ****    0 ROOT
