@<TRIPOS>MOLECULE
7PQ
   56    59     1     0     0
SMALL
abcg2


@<TRIPOS>ATOM
      1 C1          -1.9980    -0.1050     1.4900 ca         1 7PQ      -0.112500
      2 C2          -0.6750     0.1620     1.8030 ca         1 7PQ      -0.075500
      3 C3           0.2760     0.2900     0.7950 ca         1 7PQ      -0.151600
      4 C4          -0.1280     0.1780    -0.5340 ca         1 7PQ      -0.075500
      5 C5          -1.4560    -0.0740    -0.8450 ca         1 7PQ      -0.112500
      6 C6          -2.4020    -0.2320     0.1630 cp         1 7PQ      -0.017000
      7 C7          -3.8230    -0.5210    -0.1610 cp         1 7PQ      -0.037000
      8 C8           1.6880     0.5850     1.1860 c          1 7PQ       0.610700
      9 O9           1.9460     1.1790     2.2250 o          1 7PQ      -0.598100
     10 N10          2.6390     0.1640     0.3380 ns         1 7PQ      -0.506900
     11 C11          4.0480     0.3810     0.5880 c3         1 7PQ       0.101000
     12 C12          4.8520     0.0580    -0.6650 c3         1 7PQ       0.155800
     13 N13          6.2650     0.2850    -0.4580 n3         1 7PQ      -0.719600
     14 C14          6.9860     0.4890    -1.7020 c6         1 7PQ       0.128300
     15 C15          8.4350     0.8260    -1.4030 c6         1 7PQ       0.153100
     16 O16          9.0590    -0.1840    -0.6420 os         1 7PQ      -0.449000
     17 C17          8.3580    -0.4120     0.5600 c6         1 7PQ       0.153100
     18 C18          6.9090    -0.7740     0.3000 c6         1 7PQ       0.128300
     19 C19         -4.7090     0.5660    -0.4230 ca         1 7PQ      -0.023000
     20 C20         -6.0720     0.2950    -0.7140 ca         1 7PQ      -0.035000
     21 C21         -6.5170    -1.0470    -0.7270 ca         1 7PQ      -0.098000
     22 C22         -5.6500    -2.0650    -0.4640 ca         1 7PQ      -0.087000
     23 C23         -4.2830    -1.8180    -0.1880 ca         1 7PQ      -0.060300
     24 C24         -4.2820     1.9150    -0.3970 ca         1 7PQ      -0.098000
     25 C25         -5.1590     2.9360    -0.6540 ca         1 7PQ      -0.108000
     26 C26         -6.5090     2.6630    -0.9500 ca         1 7PQ      -0.105000
     27 C27         -6.9530     1.3690    -0.9770 ca         1 7PQ      -0.100000
     28 C28         -3.3970    -2.9960     0.1180 c3         1 7PQ       0.189100
     29 N29         -3.6550    -3.4700     1.4720 n8         1 7PQ      -0.989200
     30 H1          -2.7260    -0.2050     2.2840 ha         1 7PQ       0.124000
     31 H2          -0.3810     0.2650     2.8390 ha         1 7PQ       0.125000
     32 H3           0.5790     0.3090    -1.3430 ha         1 7PQ       0.125000
     33 H4          -1.7560    -0.1530    -1.8820 ha         1 7PQ       0.124000
     34 H5           2.3860    -0.4620    -0.4100 hn         1 7PQ       0.312500
     35 H6           4.2140     1.4250     0.8570 h1         1 7PQ       0.060700
     36 H7           4.3790    -0.2260     1.4360 h1         1 7PQ       0.060700
     37 H8           4.6420    -0.9750    -0.9930 h1         1 7PQ       0.033200
     38 H9           4.5110     0.7150    -1.4700 h1         1 7PQ       0.033200
     39 H11          6.9390    -0.3990    -2.3550 h1         1 7PQ       0.041700
     40 H12          6.5380     1.3200    -2.2520 h1         1 7PQ       0.041700
     41 H13          8.9980     0.9300    -2.3330 h1         1 7PQ       0.052700
     42 H14          8.4760     1.7880    -0.8720 h1         1 7PQ       0.052700
     43 H15          8.8610    -1.2270     1.0830 h1         1 7PQ       0.052700
     44 H16          8.3980     0.4790     1.2030 h1         1 7PQ       0.052700
     45 H17          6.4090    -0.9120     1.2610 h1         1 7PQ       0.041700
     46 H18          6.8590    -1.7390    -0.2320 h1         1 7PQ       0.041700
     47 H19         -7.5570    -1.2550    -0.9480 ha         1 7PQ       0.116000
     48 H20         -6.0000    -3.0900    -0.4740 ha         1 7PQ       0.122000
     49 H21         -3.2500     2.1460    -0.1660 ha         1 7PQ       0.120000
     50 H22         -4.8130     3.9620    -0.6270 ha         1 7PQ       0.114000
     51 H23         -7.1910     3.4780    -1.1510 ha         1 7PQ       0.114000
     52 H24         -7.9910     1.1500    -1.1990 ha         1 7PQ       0.113000
     53 H25         -3.6460    -3.8060    -0.5720 h1         1 7PQ       0.038200
     54 H26         -2.3490    -2.7420    -0.0700 h1         1 7PQ       0.038200
     55 H27         -3.0870    -4.2900     1.6470 hn         1 7PQ       0.394000
     56 H28         -3.3380    -2.7730     2.1350 hn         1 7PQ       0.394000
@<TRIPOS>BOND
     1     1     2 ar  
     2     1     6 ar  
     3     1    30 1   
     4     2     3 ar  
     5     2    31 1   
     6     3     4 ar  
     7     3     8 1   
     8     4     5 ar  
     9     4    32 1   
    10     5     6 ar  
    11     5    33 1   
    12     6     7 1   
    13     7    19 ar  
    14     7    23 ar  
    15     8     9 2   
    16     8    10 1   
    17    10    11 1   
    18    10    34 1   
    19    11    12 1   
    20    11    35 1   
    21    11    36 1   
    22    12    13 1   
    23    12    37 1   
    24    12    38 1   
    25    13    14 1   
    26    13    18 1   
    27    14    15 1   
    28    14    39 1   
    29    14    40 1   
    30    15    16 1   
    31    15    41 1   
    32    15    42 1   
    33    16    17 1   
    34    17    18 1   
    35    17    43 1   
    36    17    44 1   
    37    18    45 1   
    38    18    46 1   
    39    19    20 ar  
    40    19    24 ar  
    41    20    21 ar  
    42    20    27 ar  
    43    21    22 ar  
    44    21    47 1   
    45    22    23 ar  
    46    22    48 1   
    47    23    28 1   
    48    24    25 ar  
    49    24    49 1   
    50    25    26 ar  
    51    25    50 1   
    52    26    27 ar  
    53    26    51 1   
    54    27    52 1   
    55    28    29 1   
    56    28    53 1   
    57    28    54 1   
    58    29    55 1   
    59    29    56 1   
@<TRIPOS>SUBSTRUCTURE
     1 7PQ         1 TEMP              0 ****  ****    0 ROOT
