@<TRIPOS>MOLECULE
7PQ
   56    59     1     0     0
SMALL
No Charge or Current Charge


@<TRIPOS>ATOM
      1 C1          -2.1410    -0.0110     1.5550 ca         1 7PQ      -0.112500
      2 C2          -0.7980     0.1920     1.9140 ca         1 7PQ      -0.075500
      3 C3           0.2320     0.0940     0.9500 ca         1 7PQ      -0.151600
      4 C4          -0.1250    -0.2130    -0.3870 ca         1 7PQ      -0.075500
      5 C5          -1.4710    -0.4140    -0.7380 ca         1 7PQ      -0.112500
      6 C6          -2.4980    -0.3200     0.2250 cp         1 7PQ      -0.017000
      7 C7          -3.9270    -0.5280    -0.1550 cp         1 7PQ      -0.037000
      8 C8           1.6700     0.3200     1.3730 c          1 7PQ       0.610700
      9 O9           1.9780     0.5850     2.5270 o          1 7PQ      -0.598100
     10 N10          2.6300     0.2140     0.3910 ns         1 7PQ      -0.506900
     11 C11          4.0690     0.4010     0.6180 c3         1 7PQ       0.101000
     12 C12          4.9110     0.1430    -0.6560 c3         1 7PQ       0.155800
     13 N13          6.3650     0.4170    -0.5180 n3         1 7PQ      -0.719600
     14 C14          7.0820     0.3510    -1.8300 c6         1 7PQ       0.128300
     15 C15          8.6010     0.6630    -1.6790 c6         1 7PQ       0.153100
     16 O16          9.2000    -0.2210    -0.7020 os         1 7PQ      -0.449000
     17 C17          8.5750    -0.1180     0.5990 c6         1 7PQ       0.153100
     18 C18          7.0540    -0.4440     0.4990 c6         1 7PQ       0.128300
     19 C19         -4.7880     0.5840    -0.3910 ca         1 7PQ      -0.023000
     20 C20         -6.1420     0.3720    -0.7440 ca         1 7PQ      -0.035000
     21 C21         -6.6410    -0.9350    -0.8620 ca         1 7PQ      -0.098000
     22 C22         -5.8010    -2.0340    -0.6320 ca         1 7PQ      -0.087000
     23 C23         -4.4510    -1.8460    -0.2800 ca         1 7PQ      -0.060300
     24 C24         -4.3150     1.9130    -0.2860 ca         1 7PQ      -0.098000
     25 C25         -5.1730     3.0010    -0.5220 ca         1 7PQ      -0.108000
     26 C26         -6.5140     2.7780    -0.8680 ca         1 7PQ      -0.105000
     27 C27         -6.9980     1.4650    -0.9790 ca         1 7PQ      -0.100000
     28 C28         -3.5920    -3.0880    -0.0380 c3         1 7PQ       0.189100
     29 N29         -3.6260    -3.5120     1.3750 n8         1 7PQ      -0.989200
     30 H1          -2.9180     0.0740     2.3120 ha         1 7PQ       0.124000
     31 H2          -0.5610     0.4290     2.9490 ha         1 7PQ       0.125000
     32 H3           0.6260    -0.2990    -1.1680 ha         1 7PQ       0.125000
     33 H4          -1.7260    -0.6460    -1.7700 ha         1 7PQ       0.124000
     34 H5           2.3110    -0.0050    -0.5430 hn         1 7PQ       0.312500
     35 H6           4.2410     1.4300     0.9600 h1         1 7PQ       0.060700
     36 H7           4.3860    -0.2830     1.4150 h1         1 7PQ       0.060700
     37 H8           4.7580    -0.8990    -0.9690 h1         1 7PQ       0.033200
     38 H9           4.5020     0.7790    -1.4530 h1         1 7PQ       0.033200
     39 H11          6.9730    -0.6500    -2.2740 h1         1 7PQ       0.041700
     40 H12          6.6460     1.0670    -2.5410 h1         1 7PQ       0.041700
     41 H13          9.1090     0.5310    -2.6450 h1         1 7PQ       0.052700
     42 H14          8.7400     1.7060    -1.3590 h1         1 7PQ       0.052700
     43 H15          9.0630    -0.8200     1.2900 h1         1 7PQ       0.052700
     44 H16          8.7150     0.9000     0.9900 h1         1 7PQ       0.052700
     45 H17          6.6100    -0.3030     1.4940 h1         1 7PQ       0.041700
     46 H18          6.9380    -1.5070     0.2400 h1         1 7PQ       0.041700
     47 H19         -7.6810    -1.1030    -1.1310 ha         1 7PQ       0.116000
     48 H20         -6.2040    -3.0400    -0.7230 ha         1 7PQ       0.122000
     49 H21         -3.2800     2.1180    -0.0240 ha         1 7PQ       0.120000
     50 H22         -4.7960     4.0180    -0.4380 ha         1 7PQ       0.114000
     51 H23         -7.1770     3.6210    -1.0510 ha         1 7PQ       0.114000
     52 H24         -8.0380     1.2990    -1.2490 ha         1 7PQ       0.113000
     53 H25         -3.9580    -3.9170    -0.6600 h1         1 7PQ       0.038200
     54 H26         -2.5500    -2.8960    -0.3270 h1         1 7PQ       0.038200
     55 H27         -2.9750    -4.2950     1.5030 hn         1 7PQ       0.394000
     56 H28         -3.2210    -2.7610     1.9450 hn         1 7PQ       0.394000
@<TRIPOS>BOND
     1     1     2 ar  
     2     1     6 ar  
     3     1    30 1   
     4     2     3 ar  
     5     2    31 1   
     6     3     4 ar  
     7     3     8 1   
     8     4     5 ar  
     9     4    32 1   
    10     5     6 ar  
    11     5    33 1   
    12     6     7 1   
    13     7    19 ar  
    14     7    23 ar  
    15     8     9 2   
    16     8    10 1   
    17    10    11 1   
    18    10    34 1   
    19    11    12 1   
    20    11    35 1   
    21    11    36 1   
    22    12    13 1   
    23    12    37 1   
    24    12    38 1   
    25    13    14 1   
    26    13    18 1   
    27    14    15 1   
    28    14    39 1   
    29    14    40 1   
    30    15    16 1   
    31    15    41 1   
    32    15    42 1   
    33    16    17 1   
    34    17    18 1   
    35    17    43 1   
    36    17    44 1   
    37    18    45 1   
    38    18    46 1   
    39    19    20 ar  
    40    19    24 ar  
    41    20    21 ar  
    42    20    27 ar  
    43    21    22 ar  
    44    21    47 1   
    45    22    23 ar  
    46    22    48 1   
    47    23    28 1   
    48    24    25 ar  
    49    24    49 1   
    50    25    26 ar  
    51    25    50 1   
    52    26    27 ar  
    53    26    51 1   
    54    27    52 1   
    55    28    29 1   
    56    28    53 1   
    57    28    54 1   
    58    29    55 1   
    59    29    56 1   
@<TRIPOS>SUBSTRUCTURE
     1 7PQ         1 TEMP              0 ****  ****    0 ROOT
