@<TRIPOS>MOLECULE
7PS
   27    28     1     0     0
SMALL
No Charge or Current Charge


@<TRIPOS>ATOM
      1 C1           1.7430     0.4420    -0.0460 cc         1 7PS       0.094500
      2 C2           2.1800    -0.8620    -0.0420 cd         1 7PS       0.152400
      3 C3           2.7220     1.5550    -0.0630 c          1 7PS       0.521500
      4 C4           4.3320    -0.2140    -0.0630 cc         1 7PS       0.733800
      5 C5           0.0060    -0.7790    -0.0240 cd         1 7PS       0.491800
      6 C6          -4.1860    -0.0470     0.0070 c          1 7PS       0.608100
      7 C7          -6.4050     1.1340     0.0180 c3         1 7PS       0.094300
      8 C8          -2.6680     0.1860    -0.0080 c3         1 7PS      -0.056400
      9 N9           3.5170    -1.2450    -0.0520 nd         1 7PS      -0.706100
     10 N10          1.0660    -1.6560    -0.0280 na         1 7PS      -0.293500
     11 N11          4.0030     1.0970    -0.0690 ns         1 7PS      -0.456400
     12 N12          0.3640     0.4970    -0.0350 nc         1 7PS      -0.617000
     13 N13          5.6220    -0.4870    -0.0680 nv         1 7PS      -1.041200
     14 N14         -4.9400     1.1060     0.0050 ns         1 7PS      -0.500900
     15 O15         -4.7050    -1.1550     0.0190 o          1 7PS      -0.593100
     16 O16          2.4590     2.7500    -0.0730 o          1 7PS      -0.520000
     17 S17         -1.6530    -1.3760    -0.0070 ss         1 7PS      -0.256300
     18 H1          -6.7930     0.6200    -0.8710 h1         1 7PS       0.042700
     19 H2          -6.7780     0.6330     0.9200 h1         1 7PS       0.042700
     20 H3          -6.7530     2.1750     0.0130 h1         1 7PS       0.042700
     21 H4          -2.4270     0.7740    -0.9020 h1         1 7PS       0.099200
     22 H5          -2.4120     0.7850     0.8750 h1         1 7PS       0.099200
     23 H6           1.0220    -2.6630    -0.0220 hn         1 7PS       0.375000
     24 H7           4.7340     1.7880    -0.1050 hn         1 7PS       0.323500
     25 H9           5.8190    -1.4620     0.1230 hn         1 7PS       0.500000
     26 H10          6.2320     0.1710     0.4010 hn         1 7PS       0.500000
     27 H11         -4.4380     1.9870    -0.0050 hn         1 7PS       0.321500
@<TRIPOS>BOND
     1     1     2 2   
     2     1     3 1   
     3     1    12 1   
     4     2     9 1   
     5     2    10 1   
     6     3    11 1   
     7     3    16 2   
     8     4     9 2   
     9     4    11 1   
    10     4    13 1   
    11     5    10 1   
    12     5    12 2   
    13     5    17 1   
    14     6     8 1   
    15     6    14 1   
    16     6    15 2   
    17     7    14 1   
    18     7    18 1   
    19     7    19 1   
    20     7    20 1   
    21     8    17 1   
    22     8    21 1   
    23     8    22 1   
    24    10    23 1   
    25    11    24 1   
    26    13    25 1   
    27    13    26 1   
    28    14    27 1   
@<TRIPOS>SUBSTRUCTURE
     1 7PS         1 TEMP              0 ****  ****    0 ROOT
