@<TRIPOS>MOLECULE
7PS
   27    28     1     0     0
SMALL
abcg2


@<TRIPOS>ATOM
      1 C1           1.6740     0.5300    -0.0210 cc         1 7PS       0.094500
      2 C2           2.1030    -0.7840    -0.0140 cd         1 7PS       0.152400
      3 C3           2.6480     1.5660    -0.0270 c          1 7PS       0.521500
      4 C4           4.2610    -0.3000    -0.0230 cc         1 7PS       0.733800
      5 C5          -0.0850    -0.6430    -0.0060 cd         1 7PS       0.491800
      6 C6          -4.0730     0.0170     0.0010 c          1 7PS       0.608100
      7 C7          -6.3140     0.9720     0.0080 c3         1 7PS       0.094300
      8 C8          -2.5910     0.3330    -0.0220 c3         1 7PS      -0.056400
      9 N9           3.3580    -1.2510    -0.0130 nd         1 7PS      -0.706100
     10 N10          0.9650    -1.5250    -0.0050 na         1 7PS      -0.293500
     11 N11          3.9420     1.0260    -0.0280 ns         1 7PS      -0.456400
     12 N12          0.3000     0.5960    -0.0160 nc         1 7PS      -0.617000
     13 N13          5.5640    -0.6170    -0.0680 nv         1 7PS      -1.041200
     14 N14         -4.8730     1.0840    -0.0080 ns         1 7PS      -0.500900
     15 O15         -4.4790    -1.1360     0.0270 o          1 7PS      -0.593100
     16 O16          2.4820     2.7760    -0.0320 o          1 7PS      -0.520000
     17 S17         -1.7200    -1.2500     0.0080 ss         1 7PS      -0.256300
     18 H1          -6.6880     0.4530    -0.8750 h1         1 7PS       0.042700
     19 H2          -6.6640     0.4420     0.8940 h1         1 7PS       0.042700
     20 H3          -6.7340     1.9730     0.0200 h1         1 7PS       0.042700
     21 H4          -2.3260     0.8930    -0.9200 h1         1 7PS       0.099200
     22 H5          -2.3080     0.9370     0.8420 h1         1 7PS       0.099200
     23 H6           0.9140    -2.5330     0.0000 hn         1 7PS       0.375000
     24 H7           4.6950     1.7020    -0.0400 hn         1 7PS       0.323500
     25 H9           5.8110    -1.5780     0.0970 hn         1 7PS       0.500000
     26 H10          6.2680     0.0650     0.1580 hn         1 7PS       0.500000
     27 H11         -4.4660     2.0040    -0.0390 hn         1 7PS       0.321500
@<TRIPOS>BOND
     1     1     2 2   
     2     1     3 1   
     3     1    12 1   
     4     2     9 1   
     5     2    10 1   
     6     3    11 1   
     7     3    16 2   
     8     4     9 2   
     9     4    11 1   
    10     4    13 1   
    11     5    10 1   
    12     5    12 2   
    13     5    17 1   
    14     6     8 1   
    15     6    14 1   
    16     6    15 2   
    17     7    14 1   
    18     7    18 1   
    19     7    19 1   
    20     7    20 1   
    21     8    17 1   
    22     8    21 1   
    23     8    22 1   
    24    10    23 1   
    25    11    24 1   
    26    13    25 1   
    27    13    26 1   
    28    14    27 1   
@<TRIPOS>SUBSTRUCTURE
     1 7PS         1 TEMP              0 ****  ****    0 ROOT
