@<TRIPOS>MOLECULE
7PT
   35    38     1     0     0
SMALL
No Charge or Current Charge


@<TRIPOS>ATOM
      1 C1          24.0120    23.7640    19.0960 c5         1 7PT      -0.017500
      2 O1          24.0810    20.4450    21.6990 op         1 7PT      -0.415000
      3 C2          24.2030    22.6060    18.1290 c2         1 7PT      -0.117400
      4 C3          23.5380    21.5170    18.5140 c2         1 7PT      -0.201200
      5 C4          22.8010    21.7180    19.8190 c5         1 7PT      -0.012800
      6 C5          21.2500    21.9370    19.5660 c5         1 7PT      -0.038500
      7 C15         25.0700    22.7170    16.8930 c3         1 7PT      -0.036900
      8 C14         23.2150    24.9240    18.4420 c3         1 7PT      -0.075100
      9 C7          22.1550    23.8410    20.8720 c2         1 7PT      -0.248200
     10 C12         20.3360    20.7320    19.9730 c6         1 7PT       0.182600
     11 C10         22.8090    20.8330    22.2840 cx         1 7PT       0.087600
     12 C11         22.2430    19.2400    20.3480 c          1 7PT       0.672100
     13 C6          21.0630    23.2150    20.3960 ce         1 7PT      -0.150400
     14 C8          23.3730    23.0860    20.3780 c5         1 7PT      -0.017500
     15 C9          22.9300    20.5200    20.8130 cx         1 7PT       0.005000
     16 O4          18.7190    23.1470    19.9760 o          1 7PT      -0.721000
     17 O2          22.8000    18.1520    20.2830 o          1 7PT      -0.512000
     18 O5          19.4510    24.7020    21.2510 o          1 7PT      -0.721000
     19 O3          20.9970    19.4540    19.8100 os         1 7PT      -0.445100
     20 H1          24.9890    24.1840    19.3640 hc         1 7PT       0.040700
     21 H3          23.5520    20.5810    17.9540 ha         1 7PT       0.185000
     22 H5          21.0410    22.1370    18.5080 hc         1 7PT       0.087700
     23 H6          26.0970    22.9950    17.1580 hc         1 7PT       0.034033
     24 H7          25.1140    21.7660    16.3470 hc         1 7PT       0.034033
     25 H8          24.6830    23.4760    16.2030 hc         1 7PT       0.034033
     26 H9          23.0720    25.7550    19.1430 hc         1 7PT       0.033700
     27 H10         23.7480    25.3240    17.5720 hc         1 7PT       0.033700
     28 H11         22.2280    24.5910    18.1010 hc         1 7PT       0.033700
     29 H12         22.1530    24.7680    21.4490 ha         1 7PT       0.199000
     30 H14         20.0510    20.8330    21.0310 h1         1 7PT       0.077200
     31 H15         19.4100    20.7330    19.3820 h1         1 7PT       0.077200
     32 H16         22.7530    21.8630    22.6350 h1         1 7PT       0.080700
     33 H17         22.3630    20.0920    22.9470 h1         1 7PT       0.080700
     34 H19         24.1350    22.9640    21.1560 hc         1 7PT       0.044700
     35 C13         19.6340    23.7120    20.5570 c          1 7PT       0.708200
@<TRIPOS>BOND
     1     1     3 1   
     2     1     8 1   
     3     1    14 1   
     4     1    20 1   
     5     2    11 1   
     6     2    15 1   
     7     3     4 2   
     8     3     7 1   
     9     4     5 1   
    10     4    21 1   
    11     5     6 1   
    12     5    14 1   
    13     5    15 1   
    14     6    10 1   
    15     6    13 1   
    16     6    22 1   
    17     7    23 1   
    18     7    24 1   
    19     7    25 1   
    20     8    26 1   
    21     8    27 1   
    22     8    28 1   
    23     9    13 2   
    24     9    14 1   
    25     9    29 1   
    26    10    19 1   
    27    10    30 1   
    28    10    31 1   
    29    11    15 1   
    30    11    32 1   
    31    11    33 1   
    32    12    15 1   
    33    12    17 2   
    34    12    19 1   
    35    13    35 1   
    36    14    34 1   
    37    16    35 1   
    38    18    35 1   
@<TRIPOS>SUBSTRUCTURE
     1 7PT         1 TEMP              0 ****  ****    0 ROOT
