@<TRIPOS>MOLECULE
7PT
   35    38     1     0     0
SMALL
abcg2


@<TRIPOS>ATOM
      1 C1          24.0840    23.6700    19.2880 c5         1 7PT      -0.017500
      2 O1          24.3290    20.4230    21.0700 op         1 7PT      -0.415000
      3 C2          24.0630    22.6370    18.1830 c2         1 7PT      -0.117400
      4 C3          23.2760    21.6050    18.4750 c2         1 7PT      -0.201200
      5 C4          22.5790    21.7320    19.8060 c5         1 7PT      -0.012800
      6 C5          21.0220    21.7610    19.6530 c5         1 7PT      -0.038500
      7 C15         24.8850    22.8020    16.9470 c3         1 7PT      -0.036900
      8 C14         23.8810    25.1070    18.8060 c3         1 7PT      -0.075100
      9 C7          21.7140    23.9050    20.3330 c2         1 7PT      -0.248200
     10 C12         20.3590    20.7190    20.5380 c6         1 7PT       0.182600
     11 C10         23.3830    20.6800    22.1200 cx         1 7PT       0.087600
     12 C11         22.2530    19.2810    20.3670 c          1 7PT       0.672100
     13 C6          20.6450    23.1810    19.9980 ce         1 7PT      -0.150400
     14 C8          23.0100    23.1540    20.2980 c5         1 7PT      -0.017500
     15 C9          22.9630    20.5670    20.7140 cx         1 7PT       0.005000
     16 O4          18.3830    22.9040    19.3950 o          1 7PT      -0.721000
     17 O2          22.7910    18.2130    20.1960 o          1 7PT      -0.512000
     18 O5          18.9900    24.8510    20.3360 o          1 7PT      -0.721000
     19 O3          20.9250    19.4010    20.2600 os         1 7PT      -0.445100
     20 H1          25.0670    23.6240    19.7710 hc         1 7PT       0.040700
     21 H3          23.1260    20.7410    17.8380 ha         1 7PT       0.185000
     22 H5          20.7430    21.5300    18.6220 hc         1 7PT       0.087700
     23 H6          25.9380    22.9540    17.2020 hc         1 7PT       0.034033
     24 H7          24.8070    21.9300    16.2970 hc         1 7PT       0.034033
     25 H8          24.5710    23.6830    16.3810 hc         1 7PT       0.034033
     26 H9          23.8710    25.8000    19.6490 hc         1 7PT       0.033700
     27 H10         24.6890    25.4060    18.1380 hc         1 7PT       0.033700
     28 H11         22.9370    25.2130    18.2670 hc         1 7PT       0.033700
     29 H12         21.6600    24.9500    20.6070 ha         1 7PT       0.199000
     30 H14         20.4950    20.9380    21.5980 h1         1 7PT       0.077200
     31 H15         19.3010    20.6250    20.3220 h1         1 7PT       0.077200
     32 H16         23.4460    21.6560    22.5840 h1         1 7PT       0.080700
     33 H17         23.2070    19.8440    22.7900 h1         1 7PT       0.080700
     34 H19         23.4530    23.1460    21.2940 hc         1 7PT       0.044700
     35 C13         19.2240    23.6920    19.9080 c          1 7PT       0.708200
@<TRIPOS>BOND
     1     1     3 1   
     2     1     8 1   
     3     1    14 1   
     4     1    20 1   
     5     2    11 1   
     6     2    15 1   
     7     3     4 2   
     8     3     7 1   
     9     4     5 1   
    10     4    21 1   
    11     5     6 1   
    12     5    14 1   
    13     5    15 1   
    14     6    10 1   
    15     6    13 1   
    16     6    22 1   
    17     7    23 1   
    18     7    24 1   
    19     7    25 1   
    20     8    26 1   
    21     8    27 1   
    22     8    28 1   
    23     9    13 2   
    24     9    14 1   
    25     9    29 1   
    26    10    19 1   
    27    10    30 1   
    28    10    31 1   
    29    11    15 1   
    30    11    32 1   
    31    11    33 1   
    32    12    15 1   
    33    12    17 2   
    34    12    19 1   
    35    13    35 1   
    36    14    34 1   
    37    16    35 1   
    38    18    35 1   
@<TRIPOS>SUBSTRUCTURE
     1 7PT         1 TEMP              0 ****  ****    0 ROOT
