@<TRIPOS>MOLECULE
7PU
   48    51     1     0     0
SMALL
abcg2


@<TRIPOS>ATOM
      1 C10         20.2430    70.5480    40.9370 ca         1 7PU       0.190900
      2 C13         18.3360    68.6960    40.7800 ca         1 7PU      -0.337000
      3 C15         17.4550    67.6700    43.5020 ca         1 7PU       0.311000
      4 C17         16.6170    65.8800    44.8980 ca         1 7PU      -0.083000
      5 C20         16.2240    67.7240    42.8500 ca         1 7PU      -0.104000
      6 C28         18.6280    64.4420    32.2850 cx         1 7PU      -0.092900
      7 C01         16.5580    66.7180    36.2250 ca         1 7PU       0.008000
      8 C02         15.3550    66.5770    36.9300 ca         1 7PU      -0.190000
      9 C03         15.1670    67.2700    38.1140 ca         1 7PU      -0.050000
     10 C04         16.1550    68.1050    38.6240 ca         1 7PU      -0.169000
     11 C05         17.3630    68.2250    37.9370 ca         1 7PU       0.329000
     12 C06         17.5640    67.5360    36.7370 ca         1 7PU      -0.181000
     13 C08         18.8170    69.3420    39.6410 ca         1 7PU       0.404900
     14 C12         18.8700    69.0890    42.0050 ca         1 7PU       0.398900
     15 C16         17.6390    66.7420    44.5360 ca         1 7PU      -0.135000
     16 C18         15.3960    65.9170    44.2310 ca         1 7PU      -0.105000
     17 C19         15.2100    66.8410    43.2090 ca         1 7PU      -0.140300
     18 C25         17.6940    65.9950    34.1110 c          1 7PU       0.640100
     19 C27         17.4400    65.1160    32.9380 cx         1 7PU      -0.253700
     20 C29         17.9570    65.5750    31.5890 cx         1 7PU      -0.092900
     21 F22         14.0400    66.3650    41.2050 f          1 7PU      -0.124000
     22 F23         13.4600    68.1700    42.3120 f          1 7PU      -0.124000
     23 N07         18.3960    69.0720    38.3710 nu         1 7PU      -0.945900
     24 N09         19.7880    70.2820    39.7200 nb         1 7PU      -0.278000
     25 N11         19.8410    70.0260    42.0880 nb         1 7PU      -0.283000
     26 N14         18.5020    68.5520    43.2080 nu         1 7PU      -0.951900
     27 O26         18.7240    66.6530    34.2330 o          1 7PU      -0.590100
     28 H1          21.0350    71.2880    40.9980 h5         1 7PU       0.047100
     29 H2          17.6190    67.8990    40.7090 ha         1 7PU       0.147000
     30 H3          16.7750    65.1720    45.7010 ha         1 7PU       0.121000
     31 H4          16.0380    68.4670    42.0890 ha         1 7PU       0.139000
     32 H5          13.1120    66.3130    42.9790 h2         1 7PU       0.066700
     33 H7          19.5930    64.6300    32.7360 hc         1 7PU       0.084200
     34 H8          14.5770    65.9340    36.5380 ha         1 7PU       0.112000
     35 H9          14.2320    67.1690    38.6480 ha         1 7PU       0.124000
     36 H10         15.9710    68.6730    39.5230 ha         1 7PU       0.127000
     37 H11         18.4980    67.6370    36.2100 ha         1 7PU       0.153000
     38 H12         18.5920    66.7080    45.0490 ha         1 7PU       0.121000
     39 H13         14.5960    65.2400    44.5050 ha         1 7PU       0.119000
     40 H14         16.5080    64.5680    32.9410 hc         1 7PU       0.084700
     41 H15         18.4680    66.5280    31.5720 hc         1 7PU       0.084200
     42 H16         17.3300    65.3640    30.7340 hc         1 7PU       0.084200
     43 H17         18.9950    69.4540    37.6540 hn         1 7PU       0.515000
     44 H18         19.1360    68.7670    43.9640 hn         1 7PU       0.512000
     45 C21         13.9020    66.8770    42.4840 c3         1 7PU       0.217600
     46 N24         16.6790    65.9990    35.0260 ns         1 7PU      -0.145000
     47 H6          18.4710    63.4380    31.9150 hc         1 7PU       0.084200
     48 H19         15.8830    65.4220    34.8000 hn         1 7PU       0.151000
@<TRIPOS>BOND
     1     1    24 ar  
     2     1    25 ar  
     3     1    28 1   
     4     2    13 ar  
     5     2    14 ar  
     6     2    29 1   
     7     3     5 ar  
     8     3    15 ar  
     9     3    26 1   
    10     4    15 ar  
    11     4    16 ar  
    12     4    30 1   
    13     5    17 ar  
    14     5    31 1   
    15     6    19 1   
    16     6    20 1   
    17     6    33 1   
    18     6    47 1   
    19     7     8 ar  
    20     7    12 ar  
    21     7    46 1   
    22     8     9 ar  
    23     8    34 1   
    24     9    10 ar  
    25     9    35 1   
    26    10    11 ar  
    27    10    36 1   
    28    11    12 ar  
    29    11    23 1   
    30    12    37 1   
    31    13    23 1   
    32    13    24 ar  
    33    14    25 ar  
    34    14    26 1   
    35    15    38 1   
    36    16    17 ar  
    37    16    39 1   
    38    17    45 1   
    39    18    19 1   
    40    18    27 2   
    41    18    46 1   
    42    19    20 1   
    43    19    40 1   
    44    20    41 1   
    45    20    42 1   
    46    21    45 1   
    47    22    45 1   
    48    23    43 1   
    49    26    44 1   
    50    32    45 1   
    51    46    48 1   
@<TRIPOS>SUBSTRUCTURE
     1 7PU         1 TEMP              0 ****  ****    0 ROOT
