@<TRIPOS>MOLECULE
7PU
   48    51     1     0     0
SMALL
No Charge or Current Charge


@<TRIPOS>ATOM
      1 C10         20.2600    70.5920    41.1090 ca         1 7PU       0.190900
      2 C13         18.5060    68.5850    40.8850 ca         1 7PU      -0.337000
      3 C15         17.3360    67.7430    43.6590 ca         1 7PU       0.311000
      4 C17         16.3190    66.1120    45.1610 ca         1 7PU      -0.083000
      5 C20         16.1420    67.7770    42.9130 ca         1 7PU      -0.104000
      6 C28         18.2970    65.2000    31.5100 cx         1 7PU      -0.092900
      7 C01         16.9120    66.6010    36.1130 ca         1 7PU       0.008000
      8 C02         15.6410    66.5800    36.7160 ca         1 7PU      -0.190000
      9 C03         15.3950    67.3010    37.8950 ca         1 7PU      -0.050000
     10 C04         16.4280    68.0440    38.4870 ca         1 7PU      -0.169000
     11 C05         17.7080    68.0620    37.9090 ca         1 7PU       0.329000
     12 C06         17.9420    67.3540    36.7190 ca         1 7PU      -0.181000
     13 C08         19.0450    69.2080    39.7580 ca         1 7PU       0.404900
     14 C12         18.8930    69.0770    42.1330 ca         1 7PU       0.398900
     15 C16         17.4110    66.9180    44.7940 ca         1 7PU      -0.135000
     16 C18         15.1390    66.1340    44.3980 ca         1 7PU      -0.105000
     17 C19         15.0410    66.9710    43.2700 ca         1 7PU      -0.140300
     18 C25         18.1680    65.6650    34.0750 c          1 7PU       0.640100
     19 C27         17.8650    64.7660    32.8970 cx         1 7PU      -0.253700
     20 C29         16.8330    65.2140    31.8800 cx         1 7PU      -0.092900
     21 F22         13.9890    66.6540    41.1610 f          1 7PU      -0.124000
     22 F23         13.2220    68.2490    42.4220 f          1 7PU      -0.124000
     23 N07         18.7480    68.8040    38.4690 nu         1 7PU      -0.945900
     24 N09         19.9350    70.2050    39.8580 nb         1 7PU      -0.278000
     25 N11         19.7810    70.0730    42.2570 nb         1 7PU      -0.283000
     26 N14         18.4350    68.5380    43.3220 nu         1 7PU      -0.951900
     27 O26         19.2800    66.1530    34.2410 o          1 7PU      -0.590100
     28 H1          20.9820    71.4020    41.2000 h5         1 7PU       0.047100
     29 H2          17.8470    67.7320    40.7940 ha         1 7PU       0.147000
     30 H3          16.3870    65.4680    46.0360 ha         1 7PU       0.121000
     31 H4          16.0580    68.4450    42.0610 ha         1 7PU       0.139000
     32 H5          13.0160    66.3190    42.8640 h2         1 7PU       0.066700
     33 H7          18.8000    66.1590    31.4010 hc         1 7PU       0.084200
     34 H8          14.8340    66.0070    36.2640 ha         1 7PU       0.112000
     35 H9          14.4050    67.2890    38.3460 ha         1 7PU       0.124000
     36 H10         16.2210    68.6200    39.3830 ha         1 7PU       0.127000
     37 H11         18.9340    67.3920    36.2870 ha         1 7PU       0.153000
     38 H12         18.3200    66.8900    45.3870 ha         1 7PU       0.121000
     39 H13         14.3000    65.5060    44.6890 ha         1 7PU       0.119000
     40 H14         17.9130    63.7020    33.1140 hc         1 7PU       0.084700
     41 H15         16.3580    66.1840    32.0140 hc         1 7PU       0.084200
     42 H16         16.1910    64.4550    31.4370 hc         1 7PU       0.084200
     43 H17         19.4490    69.1080    37.7950 hn         1 7PU       0.515000
     44 H18         19.0440    68.7600    44.1100 hn         1 7PU       0.512000
     45 C21         13.7590    67.0070    42.4460 c3         1 7PU       0.217600
     46 N24         17.0810    65.8540    34.9160 ns         1 7PU      -0.145000
     47 H6          18.6370    64.4310    30.8190 hc         1 7PU       0.084200
     48 H19         16.2460    65.3670    34.6180 hn         1 7PU       0.151000
@<TRIPOS>BOND
     1     1    24 ar  
     2     1    25 ar  
     3     1    28 1   
     4     2    13 ar  
     5     2    14 ar  
     6     2    29 1   
     7     3     5 ar  
     8     3    15 ar  
     9     3    26 1   
    10     4    15 ar  
    11     4    16 ar  
    12     4    30 1   
    13     5    17 ar  
    14     5    31 1   
    15     6    19 1   
    16     6    20 1   
    17     6    33 1   
    18     6    47 1   
    19     7     8 ar  
    20     7    12 ar  
    21     7    46 1   
    22     8     9 ar  
    23     8    34 1   
    24     9    10 ar  
    25     9    35 1   
    26    10    11 ar  
    27    10    36 1   
    28    11    12 ar  
    29    11    23 1   
    30    12    37 1   
    31    13    23 1   
    32    13    24 ar  
    33    14    25 ar  
    34    14    26 1   
    35    15    38 1   
    36    16    17 ar  
    37    16    39 1   
    38    17    45 1   
    39    18    19 1   
    40    18    27 2   
    41    18    46 1   
    42    19    20 1   
    43    19    40 1   
    44    20    41 1   
    45    20    42 1   
    46    21    45 1   
    47    22    45 1   
    48    23    43 1   
    49    26    44 1   
    50    32    45 1   
    51    46    48 1   
@<TRIPOS>SUBSTRUCTURE
     1 7PU         1 TEMP              0 ****  ****    0 ROOT
