@<TRIPOS>MOLECULE
7PV
   38    40     1     0     0
SMALL
No Charge or Current Charge


@<TRIPOS>ATOM
      1 C10          2.3500    -1.4920     0.0310 ca         1 7PV      -0.025300
      2 C13          4.7400     0.0140     0.0060 ca         1 7PV      -0.270500
      3 C21         -4.0940     0.6330    -0.0590 cc         1 7PV       0.094500
      4 C22         -4.5360     2.0470    -0.0990 c          1 7PV       0.520500
      5 C02         -6.7260     1.0850    -0.0850 cc         1 7PV       0.736800
      6 N03         -6.4000    -0.1880    -0.0530 nd         1 7PV      -0.708100
      7 C04         -5.0230    -0.3800    -0.0390 cd         1 7PV       0.152400
      8 N05         -4.3260    -1.5580    -0.0060 na         1 7PV      -0.294500
      9 C06         -3.0040    -1.1840    -0.0070 cd         1 7PV       0.511800
     10 S07         -1.7320    -2.4020     0.0310 ss         1 7PV      -0.367300
     11 C08         -0.1850    -1.3880     0.0140 c3         1 7PV       0.068600
     12 C09          1.0580    -2.2960     0.0440 c3         1 7PV      -0.035100
     13 C11          2.9440    -1.0820     1.2390 ca         1 7PV      -0.127000
     14 C12          4.1350    -0.3340     1.2310 ca         1 7PV      -0.006000
     15 S14          6.2600     0.9710    -0.0090 sy         1 7PV       1.126600
     16 N15          7.4190    -0.1770     0.0250 n8         1 7PV      -1.006100
     17 O16          6.4580     1.6180    -1.3040 o          1 7PV      -0.543500
     18 O17          6.4450     1.6810     1.2540 o          1 7PV      -0.543500
     19 C18          4.1480    -0.3940    -1.2060 ca         1 7PV      -0.006000
     20 C19          2.9570    -1.1420    -1.1900 ca         1 7PV      -0.127000
     21 N20         -2.8110     0.1250    -0.0390 nc         1 7PV      -0.604000
     22 N24         -5.8930     2.1490    -0.1080 ns         1 7PV      -0.457400
     23 H1          -8.5910     0.5500     0.1080 hn         1 7PV       0.501000
     24 H2          -8.3060     2.2140     0.3630 hn         1 7PV       0.501000
     25 H3          -4.6930    -2.4960     0.0150 hn         1 7PV       0.374000
     26 H4          -0.1680    -0.7670    -0.8920 h1         1 7PV       0.088200
     27 H5          -0.1780    -0.7220     0.8880 h1         1 7PV       0.088200
     28 H6           1.0260    -2.9750    -0.8170 hc         1 7PV       0.062200
     29 H7           1.0160    -2.9310     0.9370 hc         1 7PV       0.062200
     30 H8           2.4840    -1.3440     2.1900 ha         1 7PV       0.120000
     31 H9           4.5810    -0.0290     2.1760 ha         1 7PV       0.138000
     32 H10          7.9840     0.1110    -0.7700 hn         1 7PV       0.473000
     33 H11          7.9760     0.1500     0.8110 hn         1 7PV       0.473000
     34 H12          4.6040    -0.1360    -2.1600 ha         1 7PV       0.138000
     35 H13          2.5070    -1.4500    -2.1310 ha         1 7PV       0.120000
     36 H15         -6.2800     3.0770    -0.1590 hn         1 7PV       0.324500
     37 O23         -3.8110     3.0320    -0.1250 o          1 7PV      -0.513000
     38 N01         -8.0160     1.3590    -0.0950 nv         1 7PV      -1.042200
@<TRIPOS>BOND
     1     1    12 1   
     2     1    13 ar  
     3     1    20 ar  
     4     2    14 ar  
     5     2    15 1   
     6     2    19 ar  
     7     3     4 1   
     8     3     7 2   
     9     3    21 1   
    10     4    22 1   
    11     4    37 2   
    12     5     6 2   
    13     5    22 1   
    14     5    38 1   
    15     6     7 1   
    16     7     8 1   
    17     8     9 1   
    18     8    25 1   
    19     9    10 1   
    20     9    21 2   
    21    10    11 1   
    22    11    12 1   
    23    11    26 1   
    24    11    27 1   
    25    12    28 1   
    26    12    29 1   
    27    13    14 ar  
    28    13    30 1   
    29    14    31 1   
    30    15    16 1   
    31    15    17 2   
    32    15    18 2   
    33    16    32 1   
    34    16    33 1   
    35    19    20 ar  
    36    19    34 1   
    37    20    35 1   
    38    22    36 1   
    39    23    38 1   
    40    24    38 1   
@<TRIPOS>SUBSTRUCTURE
     1 7PV         1 TEMP              0 ****  ****    0 ROOT
