@<TRIPOS>MOLECULE
7PV
   38    40     1     0     0
SMALL
bcc


@<TRIPOS>ATOM
      1 C10          2.3310    -1.4910    -0.0880 ca         1 7PV      -0.025300
      2 C13          4.6360     0.0530    -0.0320 ca         1 7PV      -0.270500
      3 C21         -3.9540     0.6510    -0.1590 cc         1 7PV       0.159800
      4 C22         -4.3920     2.0010    -0.2410 c          1 7PV       0.663000
      5 C02         -6.6310     1.0260     0.1050 cc         1 7PV       0.736800
      6 N03         -6.2220    -0.2170     0.1800 nd         1 7PV      -0.708100
      7 C04         -4.8960    -0.3410     0.0400 cd         1 7PV       0.137800
      8 N05         -4.1840    -1.4980     0.0750 na         1 7PV      -0.294900
      9 C06         -2.8670    -1.1610    -0.1010 cd         1 7PV       0.511800
     10 S07         -1.6440    -2.4020    -0.1170 ss         1 7PV      -0.319400
     11 C08         -0.1460    -1.3730    -0.1280 c3         1 7PV       0.020700
     12 C09          1.0660    -2.3020    -0.1160 c3         1 7PV      -0.035100
     13 C11          2.8780    -1.0780     1.1260 ca         1 7PV      -0.145000
     14 C12          4.0270    -0.3100     1.1630 ca         1 7PV      -0.024000
     15 S14          6.1060     1.0340     0.0240 sy         1 7PV       1.268200
     16 N15          7.2040    -0.0680     0.5800 n8         1 7PV      -0.895700
     17 O16          6.3970     1.4850    -1.3310 o          1 7PV      -0.614300
     18 O17          5.9850     2.0350     1.0740 o          1 7PV      -0.614300
     19 C18          4.1080    -0.3370    -1.2530 ca         1 7PV      -0.024000
     20 C19          2.9550    -1.1090    -1.2710 ca         1 7PV      -0.145000
     21 N20         -2.6900     0.1160    -0.2460 nc         1 7PV      -0.604000
     22 N24         -5.7840     2.0770    -0.0950 ns         1 7PV      -0.524400
     23 H1          -8.5520     0.5670     0.4960 hn         1 7PV       0.445800
     24 H2          -8.2570     2.2440     0.3630 hn         1 7PV       0.445800
     25 H3          -4.5600    -2.4230     0.2210 hn         1 7PV       0.323700
     26 H4          -0.1480    -0.7470    -1.0200 h1         1 7PV       0.088200
     27 H5          -0.1540    -0.7280     0.7500 h1         1 7PV       0.088200
     28 H6           1.0530    -2.9420    -0.9990 hc         1 7PV       0.062200
     29 H7           1.0260    -2.9530     0.7600 hc         1 7PV       0.062200
     30 H8           2.4040    -1.3650     2.0560 ha         1 7PV       0.138000
     31 H9           4.4420    -0.0060     2.1160 ha         1 7PV       0.156000
     32 H10          7.4920    -0.7310    -0.1320 hn         1 7PV       0.417800
     33 H11          8.0150     0.3890     0.9870 hn         1 7PV       0.417800
     34 H12          4.5820    -0.0550    -2.1830 ha         1 7PV       0.156000
     35 H13          2.5420    -1.4190    -2.2230 ha         1 7PV       0.138000
     36 H15         -6.1780     3.0080    -0.1490 hn         1 7PV       0.324500
     37 O23         -3.7310     3.0130    -0.4140 o          1 7PV      -0.588500
     38 N01         -7.9400     1.3050     0.1920 nv         1 7PV      -0.931800
@<TRIPOS>BOND
     1     1    12 1   
     2     1    13 ar  
     3     1    20 ar  
     4     2    14 ar  
     5     2    15 1   
     6     2    19 ar  
     7     3     4 1   
     8     3     7 2   
     9     3    21 1   
    10     4    22 1   
    11     4    37 2   
    12     5     6 2   
    13     5    22 1   
    14     5    38 1   
    15     6     7 1   
    16     7     8 1   
    17     8     9 1   
    18     8    25 1   
    19     9    10 1   
    20     9    21 2   
    21    10    11 1   
    22    11    12 1   
    23    11    26 1   
    24    11    27 1   
    25    12    28 1   
    26    12    29 1   
    27    13    14 ar  
    28    13    30 1   
    29    14    31 1   
    30    15    16 1   
    31    15    17 2   
    32    15    18 2   
    33    16    32 1   
    34    16    33 1   
    35    19    20 ar  
    36    19    34 1   
    37    20    35 1   
    38    22    36 1   
    39    23    38 1   
    40    24    38 1   
@<TRIPOS>SUBSTRUCTURE
     1 7PV         1 TEMP              0 ****  ****    0 ROOT
