@<TRIPOS>MOLECULE
7PW
   64    69     1     0     0
SMALL
bcc


@<TRIPOS>ATOM
      1 C1          27.7320    18.6420    10.4730 ca         1 7PW      -0.102000
      2 C2          28.1570    19.6220     9.5820 ca         1 7PW      -0.136500
      3 C4          22.3220    32.7590    14.4330 ca         1 7PW      -0.179000
      4 C39         21.3750    34.6350    12.3100 ca         1 7PW      -0.082000
      5 C38         21.0570    35.7320    11.5250 ca         1 7PW      -0.171500
      6 C36         20.0070    36.5410    11.9120 ca         1 7PW       0.149900
      7 F37         19.6910    37.6020    11.1570 f          1 7PW      -0.137900
      8 C42         19.2720    36.2880    13.0550 ca         1 7PW      -0.171500
      9 C41         19.6030    35.1860    13.8270 ca         1 7PW      -0.082000
     10 C40         20.6550    34.3430    13.4700 cp         1 7PW      -0.069000
     11 C25         20.9950    33.1600    14.2840 cp         1 7PW       0.040000
     12 C26         19.9970    32.4130    14.9040 ca         1 7PW      -0.179000
     13 C14         20.3400    31.2890    15.6290 ca         1 7PW       0.177400
     14 F30         19.3490    30.5960    16.2050 f          1 7PW      -0.139400
     15 C5          22.6040    31.6270    15.1640 ca         1 7PW       0.177400
     16 F6          23.8930    31.2720    15.2980 f          1 7PW      -0.139400
     17 C20         21.6430    30.8330    15.7750 ca         1 7PW      -0.188300
     18 C31         21.9760    29.5700    16.5370 c3         1 7PW       0.152000
     19 C32         22.7040    29.8550    17.8620 c3         1 7PW       0.029300
     20 N33         21.9920    30.8290    18.6500 na         1 7PW      -0.191900
     21 C9          20.8130    30.6350    19.3170 cc         1 7PW      -0.259600
     22 C10         20.4770    31.8570    19.8230 cd         1 7PW       0.295200
     23 N21         21.4150    32.7890    19.4770 nd         1 7PW      -0.670000
     24 C11         22.3020    32.1390    18.7710 cc         1 7PW       0.389400
     25 N34         22.7390    28.6440    15.7330 ns         1 7PW      -0.573900
     26 O13         21.3530    26.8670    15.9820 o          1 7PW      -0.584100
     27 C19         23.2150    26.6120    14.5400 ca         1 7PW      -0.134600
     28 C17         23.3080    25.2320    14.6900 ca         1 7PW      -0.098000
     29 C18         24.0820    24.4790    13.8240 ca         1 7PW      -0.096500
     30 C15         23.8850    27.2290    13.4850 ca         1 7PW      -0.098000
     31 C16         24.6450    26.4810    12.6050 ca         1 7PW      -0.096500
     32 C24         24.7530    25.1010    12.7720 ca         1 7PW      -0.115500
     33 C23         25.5620    24.3410    11.8360 cc         1 7PW       0.513900
     34 O35         25.7170    23.0180    11.9950 os         1 7PW      -0.363800
     35 N22         26.2020    24.7650    10.8000 nd         1 7PW      -0.351000
     36 N12         26.8130    23.6840    10.2420 nd         1 7PW      -0.358000
     37 C8          26.5090    22.6630    10.9720 cc         1 7PW       0.531900
     38 C7          26.9160    21.2780    10.8120 ca         1 7PW      -0.147500
     39 C27         27.7530    20.9350     9.7490 ca         1 7PW      -0.084500
     40 C28         26.8980    18.9820    11.5290 ca         1 7PW      -0.136500
     41 C29         26.4880    20.2940    11.7040 ca         1 7PW      -0.084500
     42 H1          28.0500    17.6170    10.3410 ha         1 7PW       0.136000
     43 H2          28.8050    19.3620     8.7560 ha         1 7PW       0.138500
     44 H3          23.1360    33.3280    14.0020 ha         1 7PW       0.160500
     45 H5          21.6140    35.9460    10.6230 ha         1 7PW       0.154500
     46 H6          18.4590    36.9420    13.3430 ha         1 7PW       0.154500
     47 H7          19.0400    34.9990    14.7320 ha         1 7PW       0.140000
     48 H8          18.9520    32.6760    14.8030 ha         1 7PW       0.160500
     49 H9          21.0450    29.0640    16.7830 h1         1 7PW       0.107700
     50 H10         22.7900    28.9240    18.4220 h1         1 7PW       0.071200
     51 H11         23.7130    30.2270    17.6870 h1         1 7PW       0.071200
     52 H12         20.3370    29.6710    19.3780 h4         1 7PW       0.179000
     53 H13         19.6140    32.1090    20.4220 h4         1 7PW       0.038100
     54 H14         23.1940    32.5550    18.3250 h5         1 7PW       0.053100
     55 H15         23.6450    28.9350    15.4040 hn         1 7PW       0.325500
     56 H16         22.7830    24.7380    15.4970 ha         1 7PW       0.149000
     57 H17         24.1500    23.4100    13.9730 ha         1 7PW       0.156000
     58 H18         23.8030    28.2950    13.3190 ha         1 7PW       0.149000
     59 H19         25.1500    26.9710    11.7840 ha         1 7PW       0.156000
     60 H20         28.0860    21.6960     9.0560 ha         1 7PW       0.150000
     61 H21         26.5650    18.2220    12.2230 ha         1 7PW       0.138500
     62 H22         25.8390    20.5410    12.5330 ha         1 7PW       0.150000
     63 C3          22.3440    27.3770    15.4860 c          1 7PW       0.684700
     64 H4          22.1840    33.9890    11.9930 ha         1 7PW       0.140000
@<TRIPOS>BOND
     1     1     2 ar  
     2     1    40 ar  
     3     1    42 1   
     4     2    39 ar  
     5     2    43 1   
     6     3    11 ar  
     7     3    15 ar  
     8     3    44 1   
     9     4     5 ar  
    10     4    10 ar  
    11     4    64 1   
    12     5     6 ar  
    13     5    45 1   
    14     6     7 1   
    15     6     8 ar  
    16     8     9 ar  
    17     8    46 1   
    18     9    10 ar  
    19     9    47 1   
    20    10    11 1   
    21    11    12 ar  
    22    12    13 ar  
    23    12    48 1   
    24    13    14 1   
    25    13    17 ar  
    26    15    16 1   
    27    15    17 ar  
    28    17    18 1   
    29    18    19 1   
    30    18    25 1   
    31    18    49 1   
    32    19    20 1   
    33    19    50 1   
    34    19    51 1   
    35    20    21 1   
    36    20    24 1   
    37    21    22 2   
    38    21    52 1   
    39    22    23 1   
    40    22    53 1   
    41    23    24 2   
    42    24    54 1   
    43    25    55 1   
    44    25    63 1   
    45    26    63 2   
    46    27    28 ar  
    47    27    30 ar  
    48    27    63 1   
    49    28    29 ar  
    50    28    56 1   
    51    29    32 ar  
    52    29    57 1   
    53    30    31 ar  
    54    30    58 1   
    55    31    32 ar  
    56    31    59 1   
    57    32    33 1   
    58    33    34 1   
    59    33    35 2   
    60    34    37 1   
    61    35    36 1   
    62    36    37 2   
    63    37    38 1   
    64    38    39 ar  
    65    38    41 ar  
    66    39    60 1   
    67    40    41 ar  
    68    40    61 1   
    69    41    62 1   
@<TRIPOS>SUBSTRUCTURE
     1 7PW         1 TEMP              0 ****  ****    0 ROOT
