@<TRIPOS>MOLECULE
7PW
   64    69     1     0     0
SMALL
No Charge or Current Charge


@<TRIPOS>ATOM
      1 C1          27.7010    18.3440    10.4580 ca         1 7PW      -0.084000
      2 C2          28.1560    19.3150     9.5510 ca         1 7PW      -0.118500
      3 C4          22.2040    32.8880    14.3180 ca         1 7PW      -0.161000
      4 C39         21.2870    35.0260    12.3410 ca         1 7PW      -0.064000
      5 C38         20.9830    36.2240    11.6710 ca         1 7PW      -0.153500
      6 C36         19.9370    37.0360    12.1300 ca         1 7PW       0.185000
      7 F37         19.6450    38.1870    11.4850 f          1 7PW      -0.173000
      8 C42         19.1910    36.6580    13.2550 ca         1 7PW      -0.153500
      9 C41         19.4930    35.4590    13.9260 ca         1 7PW      -0.064000
     10 C40         20.5480    34.6190    13.4830 cp         1 7PW      -0.069000
     11 C25         20.8710    33.3430    14.1970 cp         1 7PW       0.040000
     12 C26         19.8560    32.5500    14.7780 ca         1 7PW      -0.161000
     13 C14         20.1580    31.3550    15.4480 ca         1 7PW       0.212500
     14 F30         19.1430    30.6440    15.9880 f          1 7PW      -0.174500
     15 C5          22.5080    31.6950    14.9900 ca         1 7PW       0.212500
     16 F6          23.8030    31.3170    15.0790 f          1 7PW      -0.174500
     17 C20         21.4890    30.9050    15.5640 ca         1 7PW      -0.188300
     18 C31         21.8100    29.6120    16.3230 c3         1 7PW       0.152000
     19 C32         22.5780    29.8790    17.6410 c3         1 7PW       0.058600
     20 N33         21.8730    30.8080    18.5400 na         1 7PW      -0.170500
     21 C9          20.8850    30.4810    19.4430 cc         1 7PW      -0.227000
     22 C10         20.5190    31.6640    20.0310 cd         1 7PW       0.229900
     23 N21         21.2540    32.7120    19.5140 nd         1 7PW      -0.670000
     24 C11         22.0640    32.1730    18.6140 cc         1 7PW       0.389400
     25 N34         22.5270    28.6750    15.4560 ns         1 7PW      -0.506900
     26 O13         22.0730    26.7890    16.6270 o          1 7PW      -0.584100
     27 C19         23.4410    26.5250    14.6690 ca         1 7PW      -0.134600
     28 C17         23.5690    25.1280    14.8290 ca         1 7PW      -0.080000
     29 C18         24.3190    24.3610    13.9210 ca         1 7PW      -0.078500
     30 C15         24.0900    27.1350    13.5680 ca         1 7PW      -0.080000
     31 C16         24.8400    26.3660    12.6610 ca         1 7PW      -0.078500
     32 C24         24.9640    24.9700    12.8240 ca         1 7PW      -0.115500
     33 C23         25.7500    24.1730    11.8710 cc         1 7PW       0.469500
     34 O35         25.8550    22.8320    12.0500 os         1 7PW      -0.275000
     35 N22         26.4040    24.6080    10.8050 nd         1 7PW      -0.351000
     36 N12         26.9800    23.5000    10.2360 nd         1 7PW      -0.358000
     37 C8          26.6330    22.4740    10.9980 cc         1 7PW       0.487500
     38 C7          26.9960    21.0610    10.8160 ca         1 7PW      -0.147500
     39 C27         27.8060    20.6650     9.7280 ca         1 7PW      -0.066500
     40 C28         26.8960    18.7250    11.5430 ca         1 7PW      -0.118500
     41 C29         26.5440    20.0750    11.7230 ca         1 7PW      -0.066500
     42 H1          27.9720    17.2990    10.3200 ha         1 7PW       0.118000
     43 H2          28.7800    19.0220     8.7100 ha         1 7PW       0.120500
     44 H3          23.0190    33.4720    13.9020 ha         1 7PW       0.142500
     45 H5          21.5550    36.5220    10.7960 ha         1 7PW       0.136500
     46 H6          18.3830    37.2930    13.6070 ha         1 7PW       0.136500
     47 H7          18.9140    35.1880    14.8050 ha         1 7PW       0.122000
     48 H8          18.8160    32.8540    14.7000 ha         1 7PW       0.142500
     49 H9          20.8660    29.1250    16.6070 h1         1 7PW       0.107700
     50 H10         22.7280    28.9310    18.1730 h1         1 7PW       0.071200
     51 H11         23.5700    30.2900    17.4160 h1         1 7PW       0.071200
     52 H12         20.5230    29.4720    19.5980 h4         1 7PW       0.161000
     53 H13         19.7670    31.8190    20.7960 h4         1 7PW       0.038100
     54 H14         22.7870    32.6960    17.9980 h5         1 7PW       0.053100
     55 H15         23.0050    29.0460    14.6460 hn         1 7PW       0.325500
     56 H16         23.0850    24.6250    15.6640 ha         1 7PW       0.131000
     57 H17         24.3930    23.2860    14.0790 ha         1 7PW       0.138000
     58 H18         24.0270    28.2070    13.3960 ha         1 7PW       0.131000
     59 H19         25.3260    26.8650    11.8250 ha         1 7PW       0.138000
     60 H20         28.1690    21.4020     9.0140 ha         1 7PW       0.132000
     61 H21         26.5430    17.9740    12.2460 ha         1 7PW       0.120500
     62 H22         25.9190    20.3460    12.5710 ha         1 7PW       0.132000
     63 C3          22.6240    27.3180    15.6710 c          1 7PW       0.617700
     64 H4          22.0940    34.4020    11.9630 ha         1 7PW       0.122000
@<TRIPOS>BOND
     1     1     2 ar  
     2     1    40 ar  
     3     1    42 1   
     4     2    39 ar  
     5     2    43 1   
     6     3    11 ar  
     7     3    15 ar  
     8     3    44 1   
     9     4     5 ar  
    10     4    10 ar  
    11     4    64 1   
    12     5     6 ar  
    13     5    45 1   
    14     6     7 1   
    15     6     8 ar  
    16     8     9 ar  
    17     8    46 1   
    18     9    10 ar  
    19     9    47 1   
    20    10    11 1   
    21    11    12 ar  
    22    12    13 ar  
    23    12    48 1   
    24    13    14 1   
    25    13    17 ar  
    26    15    16 1   
    27    15    17 ar  
    28    17    18 1   
    29    18    19 1   
    30    18    25 1   
    31    18    49 1   
    32    19    20 1   
    33    19    50 1   
    34    19    51 1   
    35    20    21 1   
    36    20    24 1   
    37    21    22 2   
    38    21    52 1   
    39    22    23 1   
    40    22    53 1   
    41    23    24 2   
    42    24    54 1   
    43    25    55 1   
    44    25    63 1   
    45    26    63 2   
    46    27    28 ar  
    47    27    30 ar  
    48    27    63 1   
    49    28    29 ar  
    50    28    56 1   
    51    29    32 ar  
    52    29    57 1   
    53    30    31 ar  
    54    30    58 1   
    55    31    32 ar  
    56    31    59 1   
    57    32    33 1   
    58    33    34 1   
    59    33    35 2   
    60    34    37 1   
    61    35    36 1   
    62    36    37 2   
    63    37    38 1   
    64    38    39 ar  
    65    38    41 ar  
    66    39    60 1   
    67    40    41 ar  
    68    40    61 1   
    69    41    62 1   
@<TRIPOS>SUBSTRUCTURE
     1 7PW         1 TEMP              0 ****  ****    0 ROOT
