@<TRIPOS>MOLECULE
7PX
   70    73     1     0     0
SMALL
No Charge or Current Charge


@<TRIPOS>ATOM
      1 C28        -17.4450   -55.5790   -20.3080 ca         1 7PX      -0.090000
      2 C27        -20.4490   -59.0000   -23.8610 ca         1 7PX      -0.087000
      3 C26        -21.0590   -59.5230   -25.0150 ca         1 7PX      -0.113000
      4 C25        -21.7400   -58.6690   -25.8990 ca         1 7PX      -0.100000
      5 C24        -21.8120   -57.2910   -25.6300 ca         1 7PX      -0.113000
      6 C23        -21.2020   -56.7670   -24.4760 ca         1 7PX      -0.087000
      7 C22        -20.5200   -57.6210   -23.5890 ca         1 7PX       0.025000
      8 C21        -19.8980   -57.0860   -22.4120 cg         1 7PX      -0.097000
      9 C18        -19.4950   -55.9530   -19.0550 ca         1 7PX      -0.090000
     10 C17        -18.9040   -55.3800   -17.9160 ca         1 7PX      -0.101500
     11 C16        -17.5800   -54.9020   -17.9670 ca         1 7PX      -0.107300
     12 C15        -16.9600   -54.2360   -16.7460 c3         1 7PX       0.147300
     13 C14        -17.7250   -49.7500   -15.8750 c5         1 7PX      -0.102400
     14 C1         -17.2950   -51.8280   -17.3320 c          1 7PX       0.585100
     15 N1         -18.5050   -49.7240   -18.1230 n          1 7PX      -0.403800
     16 C12        -12.6010   -51.0840   -15.1370 c5         1 7PX       0.161300
     17 N4         -17.5520   -52.9170   -16.5320 ns         1 7PX      -0.493900
     18 C3         -19.1590   -50.0410   -19.3390 c          1 7PX       0.617100
     19 C8         -16.9870   -48.6160   -16.6410 c5         1 7PX       0.108700
     20 C9         -14.5660   -49.0010   -16.4530 c          1 7PX       0.609100
     21 C11        -11.7260   -49.8260   -15.4590 c5         1 7PX       0.118800
     22 O1         -16.4340   -51.8210   -18.2030 o          1 7PX      -0.609100
     23 C2         -18.3010   -50.6800   -16.9960 c5         1 7PX       0.030700
     24 C4         -19.8260   -51.4350   -19.5320 c3         1 7PX      -0.130700
     25 O2         -19.2100   -49.2050   -20.2340 o          1 7PX      -0.600100
     26 C7         -17.8780   -48.3970   -17.8970 c5         1 7PX       0.088000
     27 N2         -15.7470   -49.2350   -17.1360 ns         1 7PX      -0.516900
     28 C10        -13.4270   -49.8980   -17.0990 c5         1 7PX       0.080500
     29 N3         -12.0110   -49.4570   -16.8780 n7         1 7PX      -0.812400
     30 F1         -13.4650   -50.8340   -14.0680 f          1 7PX      -0.268000
     31 C13        -13.4100   -51.3090   -16.4450 c5         1 7PX      -0.147400
     32 O3         -14.4600   -48.1810   -15.5470 o          1 7PX      -0.575100
     33 C19        -18.7690   -56.0530   -20.2550 ca         1 7PX       0.036000
     34 C20        -19.3740   -56.6180   -21.4140 ch         1 7PX      -0.111000
     35 C29        -16.8540   -55.0050   -19.1690 ca         1 7PX      -0.101500
     36 H1         -16.8770   -55.6470   -21.2330 ha         1 7PX       0.121500
     37 H3         -21.0030   -60.5900   -25.2230 ha         1 7PX       0.115000
     38 H4         -22.2120   -59.0740   -26.7920 ha         1 7PX       0.114000
     39 H5         -22.3390   -56.6300   -26.3140 ha         1 7PX       0.115000
     40 H6         -21.2610   -55.7000   -24.2720 ha         1 7PX       0.119000
     41 H7         -20.5210   -56.3130   -19.0060 ha         1 7PX       0.121500
     42 H8         -19.4790   -55.2990   -16.9960 ha         1 7PX       0.118500
     43 H9         -17.1340   -54.8560   -15.8570 h1         1 7PX       0.067700
     44 H10        -15.8740   -54.1300   -16.8770 h1         1 7PX       0.067700
     45 H11        -18.5470   -49.3210   -15.2910 hc         1 7PX       0.074200
     46 H12        -17.0830   -50.2780   -15.1590 hc         1 7PX       0.074200
     47 H13        -21.8210   -50.7580   -18.9440 hc         1 7PX       0.043033
     48 H14        -21.5480   -50.7380   -20.7010 hc         1 7PX       0.043033
     49 H15        -21.8200   -52.2790   -19.8590 hc         1 7PX       0.043033
     50 H16        -18.0730   -52.3580   -20.4660 hc         1 7PX       0.043033
     51 H17        -19.5910   -53.2200   -20.7790 hc         1 7PX       0.043033
     52 H18        -19.2420   -51.7010   -21.6310 hc         1 7PX       0.043033
     53 H19        -11.9910   -51.9600   -14.8790 h1         1 7PX       0.062700
     54 H20        -18.2830   -52.8250   -15.8360 hn         1 7PX       0.317500
     55 H21        -16.8370   -47.6990   -16.0540 h1         1 7PX       0.086700
     56 H22        -11.9930   -48.9990   -14.7860 h1         1 7PX       0.067700
     57 H23        -10.6560   -50.0280   -15.3090 h1         1 7PX       0.067700
     58 H24        -19.2520   -51.1240   -16.6720 h1         1 7PX       0.069700
     59 H25        -19.7130   -52.0410   -18.6300 hc         1 7PX       0.045700
     60 H26        -17.2940   -48.0550   -18.7620 h1         1 7PX       0.066700
     61 H27        -18.6530   -47.6450   -17.6960 h1         1 7PX       0.066700
     62 H28        -15.7360   -49.9560   -17.8530 hn         1 7PX       0.329500
     63 H29        -13.6430   -49.9650   -18.1750 h1         1 7PX       0.075700
     64 H30        -11.4030   -50.0220   -17.4870 hn         1 7PX       0.408000
     65 H32        -12.8990   -52.0300   -17.0940 hc         1 7PX       0.074200
     66 H33        -14.4120   -51.7110   -16.2560 hc         1 7PX       0.074200
     67 H34        -15.8360   -54.6270   -19.2270 ha         1 7PX       0.118500
     68 H2         -19.9230   -59.6660   -23.1800 ha         1 7PX       0.119000
     69 C6         -21.3470   -51.2930   -19.7760 c3         1 7PX      -0.084600
     70 C5         -19.1410   -52.2260   -20.6730 c3         1 7PX      -0.084600
@<TRIPOS>BOND
     1     1    33 ar  
     2     1    35 ar  
     3     1    36 1   
     4     2     3 ar  
     5     2     7 ar  
     6     2    68 1   
     7     3     4 ar  
     8     3    37 1   
     9     4     5 ar  
    10     4    38 1   
    11     5     6 ar  
    12     5    39 1   
    13     6     7 ar  
    14     6    40 1   
    15     7     8 1   
    16     8    34 3   
    17     9    10 ar  
    18     9    33 ar  
    19     9    41 1   
    20    10    11 ar  
    21    10    42 1   
    22    11    12 1   
    23    11    35 ar  
    24    12    17 1   
    25    12    43 1   
    26    12    44 1   
    27    13    19 1   
    28    13    23 1   
    29    13    45 1   
    30    13    46 1   
    31    14    17 1   
    32    14    22 2   
    33    14    23 1   
    34    15    18 1   
    35    15    23 1   
    36    15    26 1   
    37    16    21 1   
    38    16    30 1   
    39    16    31 1   
    40    16    53 1   
    41    17    54 1   
    42    18    24 1   
    43    18    25 2   
    44    19    26 1   
    45    19    27 1   
    46    19    55 1   
    47    20    27 1   
    48    20    28 1   
    49    20    32 2   
    50    21    29 1   
    51    21    56 1   
    52    21    57 1   
    53    23    58 1   
    54    24    59 1   
    55    24    69 1   
    56    24    70 1   
    57    26    60 1   
    58    26    61 1   
    59    27    62 1   
    60    28    29 1   
    61    28    31 1   
    62    28    63 1   
    63    29    64 1   
    64    31    65 1   
    65    31    66 1   
    66    33    34 1   
    67    35    67 1   
    68    47    69 1   
    69    48    69 1   
    70    49    69 1   
    71    50    70 1   
    72    51    70 1   
    73    52    70 1   
@<TRIPOS>SUBSTRUCTURE
     1 7PX         1 TEMP              0 ****  ****    0 ROOT
