@<TRIPOS>MOLECULE
7PX
   70    73     1     0     0
SMALL
abcg2


@<TRIPOS>ATOM
      1 C28        -18.6820   -54.9110   -20.7760 ca         1 7PX      -0.090000
      2 C27        -20.5520   -60.1430   -22.9700 ca         1 7PX      -0.087000
      3 C26        -21.2130   -60.9850   -23.8490 ca         1 7PX      -0.113000
      4 C25        -22.0030   -60.4580   -24.8640 ca         1 7PX      -0.100000
      5 C24        -22.1300   -59.0810   -24.9960 ca         1 7PX      -0.113000
      6 C23        -21.4720   -58.2310   -24.1220 ca         1 7PX      -0.087000
      7 C22        -20.6760   -58.7550   -23.0980 ca         1 7PX       0.025000
      8 C21        -20.0000   -57.8880   -22.1960 cg         1 7PX      -0.097000
      9 C18        -18.1510   -56.7920   -19.3700 ca         1 7PX      -0.090000
     10 C17        -17.5070   -55.9380   -18.4890 ca         1 7PX      -0.101500
     11 C16        -17.4370   -54.5710   -18.7340 ca         1 7PX      -0.107300
     12 C15        -16.7160   -53.6600   -17.7720 c3         1 7PX       0.147300
     13 C14        -17.8230   -49.6980   -16.0300 c5         1 7PX      -0.102400
     14 C1         -17.2880   -51.2750   -17.9660 c          1 7PX       0.585100
     15 N1         -18.1630   -48.9960   -18.2250 n          1 7PX      -0.403800
     16 C12        -13.4420   -52.2470   -15.7390 c5         1 7PX       0.161300
     17 N4         -17.4810   -52.4850   -17.4250 ns         1 7PX      -0.493900
     18 C3         -18.6290   -48.8510   -19.4820 c          1 7PX       0.617100
     19 C8         -16.8330   -48.5680   -16.3190 c5         1 7PX       0.108700
     20 C9         -14.6740   -49.4200   -15.5460 c          1 7PX       0.609100
     21 C11        -12.6910   -51.6420   -14.5470 c5         1 7PX       0.118800
     22 O1         -16.4520   -51.0340   -18.8240 o          1 7PX      -0.609100
     23 C2         -18.2310   -50.1940   -17.4220 c5         1 7PX       0.030700
     24 C4         -19.4500   -49.9790   -20.0870 c3         1 7PX      -0.130700
     25 O2         -18.4470   -47.8110   -20.1020 o          1 7PX      -0.600100
     26 C7         -17.4080   -47.9270   -17.5790 c5         1 7PX       0.088000
     27 N2         -15.4880   -49.0510   -16.5530 ns         1 7PX      -0.516900
     28 C10        -13.2870   -49.8910   -15.9890 c5         1 7PX       0.080500
     29 N3         -12.4640   -50.2240   -14.8420 n7         1 7PX      -0.812400
     30 F1         -14.7940   -52.4320   -15.4020 f          1 7PX      -0.268000
     31 C13        -13.3420   -51.1880   -16.8150 c5         1 7PX      -0.147400
     32 O3         -15.0130   -49.3570   -14.3760 o          1 7PX      -0.575100
     33 C19        -18.7510   -56.2860   -20.5250 ca         1 7PX       0.036000
     34 C20        -19.4250   -57.1520   -21.4290 ch         1 7PX      -0.111000
     35 C29        -18.0320   -54.0710   -19.8920 ca         1 7PX      -0.101500
     36 H1         -19.1400   -54.5050   -21.6690 ha         1 7PX       0.121500
     37 H3         -21.1100   -62.0570   -23.7420 ha         1 7PX       0.115000
     38 H4         -22.5180   -61.1180   -25.5490 ha         1 7PX       0.114000
     39 H5         -22.7450   -58.6660   -25.7840 ha         1 7PX       0.115000
     40 H6         -21.5730   -57.1590   -24.2250 ha         1 7PX       0.119000
     41 H7         -18.1970   -57.8520   -19.1600 ha         1 7PX       0.121500
     42 H8         -17.0550   -56.3460   -17.5920 ha         1 7PX       0.118500
     43 H9         -16.4750   -54.2030   -16.8580 h1         1 7PX       0.067700
     44 H10        -15.7690   -53.3360   -18.2040 h1         1 7PX       0.067700
     45 H11        -18.7010   -49.2930   -15.5250 hc         1 7PX       0.074200
     46 H12        -17.4100   -50.4800   -15.3960 hc         1 7PX       0.074200
     47 H13        -21.2530   -49.4440   -18.9780 hc         1 7PX       0.043033
     48 H14        -21.1270   -48.6770   -20.5650 hc         1 7PX       0.043033
     49 H15        -21.5440   -50.3860   -20.4370 hc         1 7PX       0.043033
     50 H16        -17.9690   -50.5470   -21.5750 hc         1 7PX       0.043033
     51 H17        -19.6150   -51.0550   -21.9450 hc         1 7PX       0.043033
     52 H18        -19.1490   -49.3670   -22.1510 hc         1 7PX       0.043033
     53 H19        -13.0600   -53.2210   -16.0430 h1         1 7PX       0.062700
     54 H20        -18.2300   -52.6060   -16.7620 hn         1 7PX       0.317500
     55 H21        -16.8090   -47.8510   -15.4990 h1         1 7PX       0.086700
     56 H22        -13.2850   -51.7720   -13.6400 h1         1 7PX       0.067700
     57 H23        -11.7410   -52.1520   -14.3850 h1         1 7PX       0.067700
     58 H24        -19.2460   -50.5990   -17.3860 h1         1 7PX       0.069700
     59 H25        -19.3240   -50.9050   -19.5240 hc         1 7PX       0.045700
     60 H26        -16.6320   -47.5300   -18.2350 h1         1 7PX       0.066700
     61 H27        -18.0680   -47.0970   -17.3160 h1         1 7PX       0.066700
     62 H28        -15.1640   -49.1290   -17.5040 hn         1 7PX       0.329500
     63 H29        -12.8260   -49.0780   -16.5580 h1         1 7PX       0.075700
     64 H30        -11.4950   -50.0890   -15.0990 hn         1 7PX       0.408000
     65 H32        -12.3930   -51.3040   -17.3430 hc         1 7PX       0.074200
     66 H33        -14.1390   -51.2600   -17.5550 hc         1 7PX       0.074200
     67 H34        -17.9850   -53.0130   -20.1160 ha         1 7PX       0.118500
     68 H2         -19.9370   -60.5540   -22.1800 ha         1 7PX       0.119000
     69 C6         -20.9290   -49.5940   -20.0090 c3         1 7PX      -0.084600
     70 C5         -19.0170   -50.2470   -21.5230 c3         1 7PX      -0.084600
@<TRIPOS>BOND
     1     1    33 ar  
     2     1    35 ar  
     3     1    36 1   
     4     2     3 ar  
     5     2     7 ar  
     6     2    68 1   
     7     3     4 ar  
     8     3    37 1   
     9     4     5 ar  
    10     4    38 1   
    11     5     6 ar  
    12     5    39 1   
    13     6     7 ar  
    14     6    40 1   
    15     7     8 1   
    16     8    34 3   
    17     9    10 ar  
    18     9    33 ar  
    19     9    41 1   
    20    10    11 ar  
    21    10    42 1   
    22    11    12 1   
    23    11    35 ar  
    24    12    17 1   
    25    12    43 1   
    26    12    44 1   
    27    13    19 1   
    28    13    23 1   
    29    13    45 1   
    30    13    46 1   
    31    14    17 1   
    32    14    22 2   
    33    14    23 1   
    34    15    18 1   
    35    15    23 1   
    36    15    26 1   
    37    16    21 1   
    38    16    30 1   
    39    16    31 1   
    40    16    53 1   
    41    17    54 1   
    42    18    24 1   
    43    18    25 2   
    44    19    26 1   
    45    19    27 1   
    46    19    55 1   
    47    20    27 1   
    48    20    28 1   
    49    20    32 2   
    50    21    29 1   
    51    21    56 1   
    52    21    57 1   
    53    23    58 1   
    54    24    59 1   
    55    24    69 1   
    56    24    70 1   
    57    26    60 1   
    58    26    61 1   
    59    27    62 1   
    60    28    29 1   
    61    28    31 1   
    62    28    63 1   
    63    29    64 1   
    64    31    65 1   
    65    31    66 1   
    66    33    34 1   
    67    35    67 1   
    68    47    69 1   
    69    48    69 1   
    70    49    69 1   
    71    50    70 1   
    72    51    70 1   
    73    52    70 1   
@<TRIPOS>SUBSTRUCTURE
     1 7PX         1 TEMP              0 ****  ****    0 ROOT
