@<TRIPOS>MOLECULE
7PY
   47    50     1     0     0
SMALL
No Charge or Current Charge


@<TRIPOS>ATOM
      1 CAX         -3.8730     4.0540    -0.1100 c3         1 7PY       0.146400
      2 OAW         -4.5250     2.7810     0.0380 os         1 7PY      -0.324100
      3 CAS         -3.8260     1.5910     0.1640 ca         1 7PY       0.185100
      4 CAR         -2.4180     1.5640     0.1540 ca         1 7PY      -0.279000
      5 CAT         -4.5660     0.3920     0.3040 ca         1 7PY      -0.008900
      6 OAY         -5.9570     0.5180     0.3000 os         1 7PY      -0.323100
      7 CAZ         -6.8880    -0.5730     0.4160 c3         1 7PY       0.146900
      8 CAU         -3.8600    -0.8420     0.4430 ca         1 7PY       0.185100
      9 OBA         -4.5460    -2.0350     0.5970 os         1 7PY      -0.324100
     10 CBB         -3.8940    -3.3110     0.7240 c3         1 7PY       0.146400
     11 CAV         -2.4480    -0.8360     0.4300 ca         1 7PY      -0.279000
     12 CAF         -1.7360     0.3550     0.2700 ca         1 7PY       0.394000
     13 NAE         -0.3470     0.3850     0.2670 nu         1 7PY      -0.929900
     14 CAD          0.6460    -0.5020    -0.1320 ca         1 7PY       0.398900
     15 NAG          1.9010    -0.1220     0.1900 nb         1 7PY      -0.231000
     16 CAH          2.8840    -0.9570    -0.1970 ca         1 7PY       0.205500
     17 NAC          0.2830    -1.6190    -0.8040 nb         1 7PY      -0.244000
     18 CAB          1.2790    -2.4460    -1.1860 ca         1 7PY       0.193900
     19 CAA          2.6050    -2.1180    -0.8760 ca         1 7PY      -0.244800
     20 CAL          3.8370    -2.7910    -1.1860 cc         1 7PY      -0.186200
     21 CAK          4.8590    -1.9880    -0.6980 cd         1 7PY      -0.159100
     22 NAI          4.2560    -0.8990    -0.0220 na         1 7PY      -0.215900
     23 CAJ          5.0160     0.2660     0.0720 ca         1 7PY       0.454500
     24 CAM          4.9560     0.9440     1.3080 ca         1 7PY      -0.175000
     25 CAN          5.6810     2.1300     1.5050 ca         1 7PY      -0.058000
     26 CAO          6.4550     2.6090     0.4410 ca         1 7PY      -0.174000
     27 CAP          6.4730     1.8900    -0.7620 ca         1 7PY       0.361900
     28 NAQ          5.7730     0.7480    -0.9470 nb         1 7PY      -0.657000
     29 HAX1        -3.2540     4.0720    -1.0170 h1         1 7PY       0.041033
     30 HAX2        -4.6180     4.8540    -0.1920 h1         1 7PY       0.041033
     31 HAX3        -3.2370     4.2710     0.7580 h1         1 7PY       0.041033
     32 HAR         -1.8420     2.4760     0.0440 ha         1 7PY       0.138500
     33 HAZ1        -6.7590    -1.2880    -0.4070 h1         1 7PY       0.030367
     34 HAZ2        -6.7630    -1.0950     1.3730 h1         1 7PY       0.030367
     35 HAZ3        -7.9160    -0.1950     0.3730 h1         1 7PY       0.030367
     36 HBB1        -3.2820    -3.5270    -0.1610 h1         1 7PY       0.041033
     37 HBB2        -3.2530    -3.3360     1.6140 h1         1 7PY       0.041033
     38 HBB3        -4.6400    -4.1100     0.8230 h1         1 7PY       0.041033
     39 HAV         -1.8910    -1.7530     0.5640 ha         1 7PY       0.138500
     40 HAE          0.0350     1.2900     0.5350 hn         1 7PY       0.510000
     41 HAB          1.0110    -3.3490    -1.7330 h4         1 7PY       0.025100
     42 HAL          3.9680    -3.7080    -1.7590 ha         1 7PY       0.212000
     43 HAK          5.9380    -2.0990    -0.7920 h4         1 7PY       0.220000
     44 HAM          4.3450     0.5450     2.1130 ha         1 7PY       0.132000
     45 HAN          5.6410     2.6610     2.4550 ha         1 7PY       0.124000
     46 HAO          7.0360     3.5230     0.5390 ha         1 7PY       0.130000
     47 HAP          7.0660     2.2370    -1.6070 h4         1 7PY       0.026100
@<TRIPOS>BOND
     1     1     2 1   
     2     1    29 1   
     3     1    30 1   
     4     1    31 1   
     5     2     3 1   
     6     3     4 ar  
     7     3     5 ar  
     8     4    12 ar  
     9     4    32 1   
    10     5     6 1   
    11     5     8 ar  
    12     6     7 1   
    13     7    33 1   
    14     7    34 1   
    15     7    35 1   
    16     8     9 1   
    17     8    11 ar  
    18     9    10 1   
    19    10    36 1   
    20    10    37 1   
    21    10    38 1   
    22    11    12 ar  
    23    11    39 1   
    24    12    13 1   
    25    13    14 1   
    26    13    40 1   
    27    14    15 ar  
    28    14    17 ar  
    29    15    16 ar  
    30    16    19 ar  
    31    16    22 1   
    32    17    18 ar  
    33    18    19 ar  
    34    18    41 1   
    35    19    20 1   
    36    20    21 2   
    37    20    42 1   
    38    21    22 1   
    39    21    43 1   
    40    22    23 1   
    41    23    24 ar  
    42    23    28 ar  
    43    24    25 ar  
    44    24    44 1   
    45    25    26 ar  
    46    25    45 1   
    47    26    27 ar  
    48    26    46 1   
    49    27    28 ar  
    50    27    47 1   
@<TRIPOS>SUBSTRUCTURE
     1 7PY         1 TEMP              0 ****  ****    0 ROOT
