@<TRIPOS>MOLECULE
7PY
   47    50     1     0     0
SMALL
abcg2


@<TRIPOS>ATOM
      1 CAX         -3.9470     3.7900     0.3080 c3         1 7PY       0.146400
      2 OAW         -4.5850     2.5540     0.0790 os         1 7PY      -0.324100
      3 CAS         -3.8280     1.4460    -0.0050 ca         1 7PY       0.185100
      4 CAR         -2.4440     1.4380     0.1150 ca         1 7PY      -0.279000
      5 CAT         -4.5240     0.2570    -0.2360 ca         1 7PY      -0.008900
      6 OAY         -5.8750     0.2680    -0.3960 os         1 7PY      -0.323100
      7 CAZ         -6.6070     0.0940     0.8060 c3         1 7PY       0.146900
      8 CAU         -3.8090    -0.9370    -0.3140 ca         1 7PY       0.185100
      9 OBA         -4.5500    -2.0400    -0.5230 os         1 7PY      -0.324100
     10 CBB         -3.8920    -3.2800    -0.6670 c3         1 7PY       0.146400
     11 CAV         -2.4210    -0.9610    -0.1920 ca         1 7PY      -0.279000
     12 CAF         -1.7360     0.2350     0.0170 ca         1 7PY       0.394000
     13 NAE         -0.3570     0.3280     0.1250 nu         1 7PY      -0.929900
     14 CAD          0.6360    -0.6180     0.0770 ca         1 7PY       0.398900
     15 NAG          1.8650    -0.1060     0.0850 nb         1 7PY      -0.231000
     16 CAH          2.8240    -1.0090     0.0360 ca         1 7PY       0.205500
     17 NAC          0.3090    -1.9100     0.0370 nb         1 7PY      -0.244000
     18 CAB          1.2930    -2.7960     0.0070 ca         1 7PY       0.193900
     19 CAA          2.6190    -2.4030     0.0090 ca         1 7PY      -0.244800
     20 CAL          3.9050    -3.0260     0.0010 cc         1 7PY      -0.186200
     21 CAK          4.8130    -2.0250     0.0270 cd         1 7PY      -0.159100
     22 NAI          4.1710    -0.7870     0.0430 na         1 7PY      -0.215900
     23 CAJ          4.8250     0.4510     0.0810 ca         1 7PY       0.454500
     24 CAM          5.9830     0.5940     0.8420 ca         1 7PY      -0.175000
     25 CAN          6.6170     1.8210     0.8300 ca         1 7PY      -0.058000
     26 CAO          6.0700     2.8580     0.0880 ca         1 7PY      -0.174000
     27 CAP          4.9030     2.6060    -0.6140 ca         1 7PY       0.361900
     28 NAQ          4.2950     1.4290    -0.6290 nb         1 7PY      -0.657000
     29 HAX1        -3.2530     4.0520    -0.4960 h1         1 7PY       0.041033
     30 HAX2        -4.7310     4.5420     0.3460 h1         1 7PY       0.041033
     31 HAX3        -3.4050     3.8050     1.2580 h1         1 7PY       0.041033
     32 HAR         -1.8990     2.3580     0.2880 ha         1 7PY       0.138500
     33 HAZ1        -6.3700    -0.8550     1.2940 h1         1 7PY       0.030367
     34 HAZ2        -6.4280     0.9060     1.5140 h1         1 7PY       0.030367
     35 HAZ3        -7.6640     0.0920     0.5440 h1         1 7PY       0.030367
     36 HBB1        -3.2030    -3.2840    -1.5150 h1         1 7PY       0.041033
     37 HBB2        -3.3420    -3.5640     0.2340 h1         1 7PY       0.041033
     38 HBB3        -4.6680    -4.0200    -0.8470 h1         1 7PY       0.041033
     39 HAV         -1.8610    -1.8790    -0.2490 ha         1 7PY       0.138500
     40 HAE          0.0090     1.2640     0.1890 hn         1 7PY       0.510000
     41 HAB          1.0100    -3.8420    -0.0130 h4         1 7PY       0.025100
     42 HAL          4.1250    -4.0780    -0.0440 ha         1 7PY       0.212000
     43 HAK          5.8860    -2.0830    -0.0160 h4         1 7PY       0.220000
     44 HAM          6.3610    -0.2240     1.4400 ha         1 7PY       0.132000
     45 HAN          7.5180     1.9710     1.4090 ha         1 7PY       0.124000
     46 HAO          6.5300     3.8360     0.0580 ha         1 7PY       0.130000
     47 HAP          4.4380     3.3880    -1.2040 h4         1 7PY       0.026100
@<TRIPOS>BOND
     1     1     2 1   
     2     1    29 1   
     3     1    30 1   
     4     1    31 1   
     5     2     3 1   
     6     3     4 ar  
     7     3     5 ar  
     8     4    12 ar  
     9     4    32 1   
    10     5     6 1   
    11     5     8 ar  
    12     6     7 1   
    13     7    33 1   
    14     7    34 1   
    15     7    35 1   
    16     8     9 1   
    17     8    11 ar  
    18     9    10 1   
    19    10    36 1   
    20    10    37 1   
    21    10    38 1   
    22    11    12 ar  
    23    11    39 1   
    24    12    13 1   
    25    13    14 1   
    26    13    40 1   
    27    14    15 ar  
    28    14    17 ar  
    29    15    16 ar  
    30    16    19 ar  
    31    16    22 1   
    32    17    18 ar  
    33    18    19 ar  
    34    18    41 1   
    35    19    20 1   
    36    20    21 2   
    37    20    42 1   
    38    21    22 1   
    39    21    43 1   
    40    22    23 1   
    41    23    24 ar  
    42    23    28 ar  
    43    24    25 ar  
    44    24    44 1   
    45    25    26 ar  
    46    25    45 1   
    47    26    27 ar  
    48    26    46 1   
    49    27    28 ar  
    50    27    47 1   
@<TRIPOS>SUBSTRUCTURE
     1 7PY         1 TEMP              0 ****  ****    0 ROOT
