@<TRIPOS>MOLECULE
7PZ
  104   105     1     0     0
SMALL
No Charge or Current Charge


@<TRIPOS>ATOM
      1 C10         10.9940   -16.1590     7.8920 c3         1 7PZ      -0.090600
      2 C20          4.8200   -14.5540     5.8360 c3         1 7PZ      -0.074400
      3 C21          3.5130   -14.7950     6.6310 c3         1 7PZ      -0.099400
      4 C22          2.3250   -15.2430     5.7550 c3         1 7PZ       0.101000
      5 C24          0.7830   -14.1720     4.0660 c          1 7PZ       0.582100
      6 C26          0.6460   -13.0090     3.0320 c3         1 7PZ       0.031700
      7 C28          2.0360   -10.9090     3.4200 c          1 7PZ       0.591100
      8 C01         10.4230   -11.1740     1.0950 ca         1 7PZ      -0.101000
      9 C02         10.0400   -12.4050     1.6630 ca         1 7PZ      -0.104300
     10 C03         11.0880   -13.3580     2.2220 c3         1 7PZ       0.142300
     11 C05         11.1310   -15.0390     4.0970 c          1 7PZ       0.591100
     12 C07         10.5060   -15.4360     5.4730 c3         1 7PZ       0.035700
     13 C08         11.5710   -15.5210     6.6050 c3         1 7PZ      -0.067700
     14 C09         12.2430   -14.1580     6.9090 c3         1 7PZ      -0.090600
     15 C12          8.1020   -14.6220     5.3780 c          1 7PZ       0.593100
     16 C14          7.1580   -13.4550     5.8420 c3         1 7PZ       0.152500
     17 C19          5.9530   -13.9350     6.6900 c3         1 7PZ      -0.082400
     18 C30          3.3640   -10.1800     3.0430 c3         1 7PZ       0.029700
     19 C32          5.5090   -11.4070     2.4540 c          1 7PZ       0.617100
     20 C33          6.2150   -12.2100     1.3560 c3         1 7PZ      -0.110100
     21 C34          7.6930   -11.8560     1.2310 ca         1 7PZ      -0.080300
     22 C35          8.6720   -12.7440     1.7150 ca         1 7PZ      -0.079000
     23 C36          8.0870   -10.6300     0.6660 ca         1 7PZ      -0.099000
     24 C37          9.4500   -10.2920     0.5950 ca         1 7PZ      -0.112000
     25 C39          3.1320    -8.7740     2.4320 c3         1 7PZ      -0.084400
     26 C40          2.3360    -8.7640     1.1020 c3         1 7PZ      -0.079400
     27 C41          2.1770    -7.3430     0.5160 c3         1 7PZ      -0.076400
     28 C42          1.3780    -7.3190    -0.8030 c3         1 7PZ       0.142800
     29 C44          0.2310   -13.5300     1.6300 c3         1 7PZ      -0.081400
     30 C45          0.0300   -12.4390     0.5460 c3         1 7PZ      -0.072400
     31 C46         -1.1010   -11.4320     0.8620 c3         1 7PZ      -0.085400
     32 C47         -1.3570   -10.4440    -0.2930 c3         1 7PZ       0.149800
     33 N04         10.7160   -13.8420     3.5510 ns         1 7PZ      -0.499900
     34 N11          9.3930   -14.5370     5.8500 ns         1 7PZ      -0.495900
     35 N15          7.8720   -12.3450     6.5740 nu         1 7PZ      -0.981400
     36 N17          8.7300   -11.4400     4.7760 nv         1 7PZ      -1.032200
     37 N18          9.5590   -10.8890     6.8060 n2         1 7PZ      -0.897100
     38 N23          1.9720   -14.2250     4.7620 ns         1 7PZ      -0.499900
     39 N27          1.8850   -12.1940     2.9310 ns         1 7PZ      -0.493900
     40 N31          4.2310   -10.9920     2.1470 ns         1 7PZ      -0.519900
     41 N43          1.2870    -5.9540    -1.3550 n8         1 7PZ      -0.996200
     42 N48         -2.4450    -9.5050     0.0300 n8         1 7PZ      -1.001200
     43 O06         11.9280   -15.7620     3.5110 o          1 7PZ      -0.618100
     44 O13          7.7560   -15.5160     4.6160 o          1 7PZ      -0.607100
     45 O25         -0.0940   -15.0080     4.2410 o          1 7PZ      -0.594100
     46 O29          1.1700   -10.3830     4.1060 o          1 7PZ      -0.620100
     47 O38          6.0140   -11.1990     3.5480 o          1 7PZ      -0.614100
     48 H101        11.7830   -16.3010     8.6400 hc         1 7PZ       0.036533
     49 H103        10.2160   -15.5250     8.3340 hc         1 7PZ       0.036533
     50 H102        10.5550   -17.1400     7.6750 hc         1 7PZ       0.036533
     51 H202         4.6130   -13.8800     4.9960 hc         1 7PZ       0.061700
     52 H201         5.1570   -15.5040     5.4030 hc         1 7PZ       0.061700
     53 H211         3.6960   -15.5560     7.4000 hc         1 7PZ       0.042200
     54 H212         3.2300   -13.8750     7.1590 hc         1 7PZ       0.042200
     55 H222         1.4550   -15.4340     6.3980 h1         1 7PZ       0.058700
     56 H221         2.5770   -16.1770     5.2340 h1         1 7PZ       0.058700
     57 H261        -0.1620   -12.3740     3.4160 h1         1 7PZ       0.081700
     58 H011        11.4740   -10.8980     1.0430 ha         1 7PZ       0.114000
     59 H031        11.1940   -14.2110     1.5390 h1         1 7PZ       0.063700
     60 H032        12.0610   -12.8540     2.2930 h1         1 7PZ       0.063700
     61 H071        10.0910   -16.4410     5.3230 h1         1 7PZ       0.096700
     62 H081        12.3620   -16.1960     6.2500 hc         1 7PZ       0.077700
     63 H093        13.0350   -14.2800     7.6570 hc         1 7PZ       0.036533
     64 H091        12.6980   -13.7330     6.0070 hc         1 7PZ       0.036533
     65 H092        11.5170   -13.4360     7.3010 hc         1 7PZ       0.036533
     66 H141         6.7420   -13.0550     4.9130 h1         1 7PZ       0.085700
     67 H192         6.2890   -14.6470     7.4540 hc         1 7PZ       0.044200
     68 H191         5.5320   -13.0720     7.2220 hc         1 7PZ       0.044200
     69 H1           3.8860   -10.0420     3.9990 h1         1 7PZ       0.105700
     70 H332         5.6880   -12.0800     0.4040 hc         1 7PZ       0.069200
     71 H331         6.0880   -13.2700     1.6050 hc         1 7PZ       0.069200
     72 H351         8.3690   -13.6930     2.1520 ha         1 7PZ       0.136000
     73 H361         7.3400    -9.9350     0.2900 ha         1 7PZ       0.109000
     74 H371         9.7510    -9.3420     0.1590 ha         1 7PZ       0.115000
     75 H391         4.1080    -8.3000     2.2710 hc         1 7PZ       0.063200
     76 H392         2.6050    -8.1520     3.1670 hc         1 7PZ       0.063200
     77 H401         1.3420    -9.1980     1.2670 hc         1 7PZ       0.038700
     78 H402         2.8430    -9.3970     0.3630 hc         1 7PZ       0.038700
     79 H411         3.1720    -6.9150     0.3430 hc         1 7PZ       0.047700
     80 H412         1.6750    -6.7040     1.2540 hc         1 7PZ       0.047700
     81 H422         0.3620    -7.6960    -0.6270 h1         1 7PZ       0.032200
     82 H421         1.8680    -7.9660    -1.5440 h1         1 7PZ       0.032200
     83 H441        -0.6990   -14.1050     1.7220 hc         1 7PZ       0.065700
     84 H442         0.9920   -14.2370     1.2760 hc         1 7PZ       0.065700
     85 H452        -0.2010   -12.9390    -0.4030 hc         1 7PZ       0.036200
     86 H451         0.9680   -11.8940     0.3870 hc         1 7PZ       0.036200
     87 H462        -0.8440   -10.8640     1.7650 hc         1 7PZ       0.050700
     88 H461        -2.0250   -11.9840     1.0780 hc         1 7PZ       0.050700
     89 H472        -1.6310   -10.9990    -1.2010 h1         1 7PZ       0.024700
     90 H471        -0.4430    -9.8700    -0.4980 h1         1 7PZ       0.024700
     91 H041        10.0620   -13.2900     4.0980 hn         1 7PZ       0.347500
     92 H111         9.5690   -13.7450     6.4610 hn         1 7PZ       0.332500
     93 H151         7.5750   -12.1460     7.5230 hn         1 7PZ       0.483000
     94 H2           9.2590   -10.6470     4.4510 hn         1 7PZ       0.477000
     95 H171         7.7700   -11.4360     4.4510 hn         1 7PZ       0.477000
     96 H181         9.3650   -11.1770     7.7680 hn         1 7PZ       0.378400
     97 H231         2.6290   -13.4790     4.5750 hn         1 7PZ       0.327500
     98 H271         2.6510   -12.5470     2.3680 hn         1 7PZ       0.333500
     99 H311         3.9190   -11.1640     1.1970 hn         1 7PZ       0.314500
    100 H432         0.6970    -5.9700    -2.1950 hn         1 7PZ       0.391500
    101 H3           0.7580    -5.3640    -0.7010 hn         1 7PZ       0.391500
    102 H482        -2.6300    -8.9120    -0.7880 hn         1 7PZ       0.393500
    103 H481        -3.3180   -10.0330     0.1450 hn         1 7PZ       0.393500
    104 C16          8.7640   -11.4900     6.0750 c2         1 7PZ       0.798100
@<TRIPOS>BOND
     1     1    13 1   
     2     1    48 1   
     3     1    49 1   
     4     1    50 1   
     5     2     3 1   
     6     2    17 1   
     7     2    51 1   
     8     2    52 1   
     9     3     4 1   
    10     3    53 1   
    11     3    54 1   
    12     4    38 1   
    13     4    55 1   
    14     4    56 1   
    15     5     6 1   
    16     5    38 1   
    17     5    45 2   
    18     6    29 1   
    19     6    39 1   
    20     6    57 1   
    21     7    18 1   
    22     7    39 1   
    23     7    46 2   
    24     8     9 ar  
    25     8    24 ar  
    26     8    58 1   
    27     9    10 1   
    28     9    22 ar  
    29    10    33 1   
    30    10    59 1   
    31    10    60 1   
    32    11    12 1   
    33    11    33 1   
    34    11    43 2   
    35    12    13 1   
    36    12    34 1   
    37    12    61 1   
    38    13    14 1   
    39    13    62 1   
    40    14    63 1   
    41    14    64 1   
    42    14    65 1   
    43    15    16 1   
    44    15    34 1   
    45    15    44 2   
    46    16    17 1   
    47    16    35 1   
    48    16    66 1   
    49    17    67 1   
    50    17    68 1   
    51    18    25 1   
    52    18    40 1   
    53    18    69 1   
    54    19    20 1   
    55    19    40 1   
    56    19    47 2   
    57    20    21 1   
    58    20    70 1   
    59    20    71 1   
    60    21    22 ar  
    61    21    23 ar  
    62    22    72 1   
    63    23    24 ar  
    64    23    73 1   
    65    24    74 1   
    66    25    26 1   
    67    25    75 1   
    68    25    76 1   
    69    26    27 1   
    70    26    77 1   
    71    26    78 1   
    72    27    28 1   
    73    27    79 1   
    74    27    80 1   
    75    28    41 1   
    76    28    81 1   
    77    28    82 1   
    78    29    30 1   
    79    29    83 1   
    80    29    84 1   
    81    30    31 1   
    82    30    85 1   
    83    30    86 1   
    84    31    32 1   
    85    31    87 1   
    86    31    88 1   
    87    32    42 1   
    88    32    89 1   
    89    32    90 1   
    90    33    91 1   
    91    34    92 1   
    92    35    93 1   
    93    35   104 1   
    94    36    94 1   
    95    36    95 1   
    96    36   104 1   
    97    37    96 1   
    98    37   104 2   
    99    38    97 1   
   100    39    98 1   
   101    40    99 1   
   102    41   100 1   
   103    41   101 1   
   104    42   102 1   
   105    42   103 1   
@<TRIPOS>SUBSTRUCTURE
     1 7PZ         1 TEMP              0 ****  ****    0 ROOT
