@<TRIPOS>MOLECULE
7PZ
  104   105     1     0     0
SMALL
bcc


@<TRIPOS>ATOM
      1 C10          9.0140   -16.9040     6.9290 c3         1 7PZ      -0.090600
      2 C20          4.7220   -13.5630     6.3240 c3         1 7PZ      -0.074400
      3 C21          3.5450   -13.6290     7.2880 c3         1 7PZ      -0.099400
      4 C22          2.3330   -14.3550     6.7110 c3         1 7PZ       0.101000
      5 C24          2.1610   -14.2300     4.2550 c          1 7PZ       0.649100
      6 C26          1.7180   -13.3100     3.1100 c3         1 7PZ       0.031700
      7 C28          2.6940   -11.0770     3.4420 c          1 7PZ       0.658100
      8 C01         10.8920   -11.1150     1.1410 ca         1 7PZ      -0.119000
      9 C02         10.1940   -12.2150     1.6270 ca         1 7PZ      -0.104300
     10 C03         10.9320   -13.3500     2.2940 c3         1 7PZ       0.142300
     11 C05          9.8660   -15.1400     3.5930 c          1 7PZ       0.658100
     12 C07          9.0490   -15.4840     4.8430 c3         1 7PZ       0.035700
     13 C08          9.8790   -16.3610     5.7950 c3         1 7PZ      -0.067700
     14 C09         11.1180   -15.6530     6.3360 c3         1 7PZ      -0.090600
     15 C12          7.4530   -13.6450     5.0760 c          1 7PZ       0.660100
     16 C14          7.0110   -12.4710     5.9510 c3         1 7PZ       0.152500
     17 C19          5.9490   -12.9240     6.9610 c3         1 7PZ      -0.082400
     18 C30          3.7510   -10.0780     2.9710 c3         1 7PZ       0.029700
     19 C32          5.9440   -10.7310     2.0470 c          1 7PZ       0.684100
     20 C33          6.6260   -11.2470     0.7890 c3         1 7PZ      -0.110100
     21 C34          8.1210   -11.2060     0.8810 ca         1 7PZ      -0.080300
     22 C35          8.8110   -12.2500     1.4840 ca         1 7PZ      -0.097000
     23 C36          8.8340   -10.1140     0.3980 ca         1 7PZ      -0.117000
     24 C37         10.2150   -10.0720     0.5220 ca         1 7PZ      -0.130000
     25 C39          3.0850    -8.7600     2.5560 c3         1 7PZ      -0.084400
     26 C40          2.0920    -8.8780     1.4050 c3         1 7PZ      -0.079400
     27 C41          1.5330    -7.5230     0.9900 c3         1 7PZ      -0.076400
     28 C42          0.5220    -7.6340    -0.1400 c3         1 7PZ       0.142800
     29 C44          1.4620   -14.0830     1.8230 c3         1 7PZ      -0.081400
     30 C45          1.1150   -13.2050     0.6240 c3         1 7PZ      -0.072400
     31 C46         -0.1240   -12.3370     0.8030 c3         1 7PZ      -0.085400
     32 C47         -0.4520   -11.5450    -0.4530 c3         1 7PZ       0.149800
     33 N04         10.2230   -13.8580     3.4420 ns         1 7PZ      -0.566900
     34 N11          8.5110   -14.3370     5.5290 ns         1 7PZ      -0.562900
     35 N15          8.1110   -11.8770     6.6750 nu         1 7PZ      -0.926200
     36 N17          9.2060   -11.2300     4.7300 nv         1 7PZ      -0.921800
     37 N18         10.0740   -10.5780     6.7600 n2         1 7PZ      -0.897100
     38 N23          1.8510   -13.7690     5.4780 ns         1 7PZ      -0.566900
     39 N27          2.7400   -12.3020     2.9010 ns         1 7PZ      -0.560900
     40 N31          4.6060   -10.5970     1.9290 ns         1 7PZ      -0.586900
     41 N43          0.0350    -6.3210    -0.5400 n8         1 7PZ      -0.885800
     42 N48         -1.6410   -10.7290    -0.2610 n8         1 7PZ      -0.890800
     43 O06         10.1720   -16.0340     2.8150 o          1 7PZ      -0.618100
     44 O13          6.8480   -13.9370     4.0550 o          1 7PZ      -0.607100
     45 O25          2.7690   -15.2690     4.0500 o          1 7PZ      -0.594100
     46 O29          1.8530   -10.7320     4.2610 o          1 7PZ      -0.620100
     47 O38          6.5490   -10.4820     3.0770 o          1 7PZ      -0.614100
     48 H101         9.5770   -17.6260     7.5220 hc         1 7PZ       0.036533
     49 H103         8.6840   -16.1140     7.6060 hc         1 7PZ       0.036533
     50 H102         8.1260   -17.4100     6.5470 hc         1 7PZ       0.036533
     51 H202         4.4350   -12.9880     5.4410 hc         1 7PZ       0.061700
     52 H201         4.9600   -14.5700     5.9760 hc         1 7PZ       0.061700
     53 H211         3.8380   -14.1450     8.2070 hc         1 7PZ       0.042200
     54 H212         3.2570   -12.6140     7.5820 hc         1 7PZ       0.042200
     55 H222         1.5180   -14.3440     7.4370 h1         1 7PZ       0.058700
     56 H221         2.5750   -15.4000     6.5200 h1         1 7PZ       0.058700
     57 H261         0.8060   -12.7920     3.4110 h1         1 7PZ       0.081700
     58 H011        11.9690   -11.0690     1.2500 ha         1 7PZ       0.132000
     59 H031        11.0770   -14.1700     1.5890 h1         1 7PZ       0.063700
     60 H032        11.9300   -13.0120     2.5880 h1         1 7PZ       0.063700
     61 H071         8.2140   -16.0930     4.4830 h1         1 7PZ       0.096700
     62 H081        10.2110   -17.2120     5.1950 hc         1 7PZ       0.077700
     63 H093        11.7000   -16.3410     6.9500 hc         1 7PZ       0.036533
     64 H091        11.7720   -15.2950     5.5400 hc         1 7PZ       0.036533
     65 H092        10.8680   -14.8000     6.9700 hc         1 7PZ       0.036533
     66 H141         6.5300   -11.7510     5.2790 h1         1 7PZ       0.085700
     67 H192         6.4030   -13.6090     7.6830 hc         1 7PZ       0.044200
     68 H191         5.6440   -12.0340     7.5210 hc         1 7PZ       0.044200
     69 H1           4.3890    -9.8770     3.8340 h1         1 7PZ       0.105700
     70 H332         6.2740   -10.6710    -0.0700 hc         1 7PZ       0.069200
     71 H331         6.2790   -12.2730     0.6270 hc         1 7PZ       0.069200
     72 H351         8.2540   -13.0970     1.8670 ha         1 7PZ       0.154000
     73 H361         8.3080    -9.2930    -0.0740 ha         1 7PZ       0.127000
     74 H371        10.7660    -9.2200     0.1450 ha         1 7PZ       0.133000
     75 H391         3.8810    -8.0600     2.2890 hc         1 7PZ       0.063200
     76 H392         2.5820    -8.3380     3.4280 hc         1 7PZ       0.063200
     77 H401         1.2650    -9.5360     1.6900 hc         1 7PZ       0.038700
     78 H402         2.5650    -9.3410     0.5330 hc         1 7PZ       0.038700
     79 H411         2.3500    -6.8650     0.6800 hc         1 7PZ       0.047700
     80 H412         1.0600    -7.0450     1.8550 hc         1 7PZ       0.047700
     81 H422        -0.2780    -8.3250     0.1650 h1         1 7PZ       0.032200
     82 H421         1.0080    -8.0950    -1.0050 h1         1 7PZ       0.032200
     83 H441         0.6470   -14.7880     2.0100 hc         1 7PZ       0.065700
     84 H442         2.3400   -14.6870     1.5820 hc         1 7PZ       0.065700
     85 H452         0.9670   -13.8640    -0.2370 hc         1 7PZ       0.036200
     86 H451         1.9680   -12.5700     0.3650 hc         1 7PZ       0.036200
     87 H462         0.0090   -11.6340     1.6310 hc         1 7PZ       0.050700
     88 H461        -0.9780   -12.9710     1.0690 hc         1 7PZ       0.050700
     89 H472        -0.5310   -12.2400    -1.3020 h1         1 7PZ       0.024700
     90 H471         0.3850   -10.8780    -0.6790 h1         1 7PZ       0.024700
     91 H041         9.8990   -13.1600     4.1060 hn         1 7PZ       0.347500
     92 H111         8.9630   -14.0030     6.3680 hn         1 7PZ       0.332500
     93 H151         7.9640   -11.7120     7.6580 hn         1 7PZ       0.427800
     94 H2           9.9360   -10.6370     4.3630 hn         1 7PZ       0.421800
     95 H171         8.3450   -11.0930     4.2130 hn         1 7PZ       0.421800
     96 H181         9.9620   -10.7110     7.7590 hn         1 7PZ       0.378400
     97 H231         1.4040   -12.8670     5.5400 hn         1 7PZ       0.327500
     98 H271         3.5070   -12.5340     2.2880 hn         1 7PZ       0.333500
     99 H311         4.2090   -10.7160     1.0080 hn         1 7PZ       0.314500
    100 H432        -0.6190    -6.4250    -1.3060 hn         1 7PZ       0.336300
    101 H3          -0.5030    -5.9220     0.2200 hn         1 7PZ       0.336300
    102 H482        -1.8210   -10.1900    -1.0980 hn         1 7PZ       0.338300
    103 H481        -2.4480   -11.3310    -0.1440 hn         1 7PZ       0.338300
    104 C16          9.1480   -11.1750     6.1090 c2         1 7PZ       0.798100
@<TRIPOS>BOND
     1     1    13 1   
     2     1    48 1   
     3     1    49 1   
     4     1    50 1   
     5     2     3 1   
     6     2    17 1   
     7     2    51 1   
     8     2    52 1   
     9     3     4 1   
    10     3    53 1   
    11     3    54 1   
    12     4    38 1   
    13     4    55 1   
    14     4    56 1   
    15     5     6 1   
    16     5    38 1   
    17     5    45 2   
    18     6    29 1   
    19     6    39 1   
    20     6    57 1   
    21     7    18 1   
    22     7    39 1   
    23     7    46 2   
    24     8     9 ar  
    25     8    24 ar  
    26     8    58 1   
    27     9    10 1   
    28     9    22 ar  
    29    10    33 1   
    30    10    59 1   
    31    10    60 1   
    32    11    12 1   
    33    11    33 1   
    34    11    43 2   
    35    12    13 1   
    36    12    34 1   
    37    12    61 1   
    38    13    14 1   
    39    13    62 1   
    40    14    63 1   
    41    14    64 1   
    42    14    65 1   
    43    15    16 1   
    44    15    34 1   
    45    15    44 2   
    46    16    17 1   
    47    16    35 1   
    48    16    66 1   
    49    17    67 1   
    50    17    68 1   
    51    18    25 1   
    52    18    40 1   
    53    18    69 1   
    54    19    20 1   
    55    19    40 1   
    56    19    47 2   
    57    20    21 1   
    58    20    70 1   
    59    20    71 1   
    60    21    22 ar  
    61    21    23 ar  
    62    22    72 1   
    63    23    24 ar  
    64    23    73 1   
    65    24    74 1   
    66    25    26 1   
    67    25    75 1   
    68    25    76 1   
    69    26    27 1   
    70    26    77 1   
    71    26    78 1   
    72    27    28 1   
    73    27    79 1   
    74    27    80 1   
    75    28    41 1   
    76    28    81 1   
    77    28    82 1   
    78    29    30 1   
    79    29    83 1   
    80    29    84 1   
    81    30    31 1   
    82    30    85 1   
    83    30    86 1   
    84    31    32 1   
    85    31    87 1   
    86    31    88 1   
    87    32    42 1   
    88    32    89 1   
    89    32    90 1   
    90    33    91 1   
    91    34    92 1   
    92    35    93 1   
    93    35   104 1   
    94    36    94 1   
    95    36    95 1   
    96    36   104 1   
    97    37    96 1   
    98    37   104 2   
    99    38    97 1   
   100    39    98 1   
   101    40    99 1   
   102    41   100 1   
   103    41   101 1   
   104    42   102 1   
   105    42   103 1   
@<TRIPOS>SUBSTRUCTURE
     1 7PZ         1 TEMP              0 ****  ****    0 ROOT
