@<TRIPOS>MOLECULE
7Q0
   38    41     1     0     0
SMALL
abcg2


@<TRIPOS>ATOM
      1 C1         117.6500   137.6490   103.9720 ca         1 7Q0      -0.089000
      2 C2         117.1340   136.3820   104.1400 ca         1 7Q0      -0.114000
      3 C3         117.8940   135.2540   103.7510 ca         1 7Q0       0.035000
      4 C4         119.1540   135.5250   103.2030 ca         1 7Q0      -0.096000
      5 C5         119.6790   136.8100   103.0270 ca         1 7Q0      -0.054300
      6 C6         118.9270   137.8910   103.4140 ca         1 7Q0      -0.118000
      7 C8         118.3860   132.8870   103.4290 ca         1 7Q0       0.330000
      8 C10        120.0330   134.5200   102.7630 ca         1 7Q0      -0.025300
      9 C11        121.0480   136.6970   102.4040 c5         1 7Q0      -0.031100
     10 C12        121.2820   135.1710   102.2250 c5         1 7Q0      -0.033100
     11 C13        116.0440   133.3500   105.7030 c          1 7Q0       0.614700
     12 C14        114.6240   133.1480   106.1210 ca         1 7Q0      -0.170600
     13 C15        113.5530   133.7440   105.4590 ca         1 7Q0      -0.048000
     14 C17        112.0430   132.7970   107.0340 ca         1 7Q0       0.191000
     15 O1         116.9500   133.3280   106.5180 o          1 7Q0      -0.567100
     16 N2         118.0590   131.5650   103.5770 nv         1 7Q0      -1.074000
     17 C7         117.5210   133.8920   103.8510 ca         1 7Q0      -0.151000
     18 C9         119.6620   133.2140   102.8730 ca         1 7Q0      -0.157000
     19 C16        112.2540   133.5740   105.9120 ca         1 7Q0      -0.162500
     20 C18        113.0820   132.1910   107.7170 ca         1 7Q0      -0.162500
     21 C19        114.3740   132.3820   107.2580 ca         1 7Q0      -0.048000
     22 F1         110.7910   132.6320   107.4810 f          1 7Q0      -0.174000
     23 H1         117.0520   138.4970   104.2790 ha         1 7Q0       0.108000
     24 H2         116.1470   136.2580   104.5670 ha         1 7Q0       0.113000
     25 H3         119.2830   138.9070   103.3020 ha         1 7Q0       0.115000
     26 H5         121.8120   137.1480   103.0390 hc         1 7Q0       0.056200
     27 H6         121.0910   137.2240   101.4480 hc         1 7Q0       0.056200
     28 H7         121.4430   134.9100   101.1780 hc         1 7Q0       0.057700
     29 H8         122.1670   134.8350   102.7680 hc         1 7Q0       0.057700
     30 H10        113.7140   134.3760   104.5940 ha         1 7Q0       0.128000
     31 H9         115.4710   133.4850   103.7440 hn         1 7Q0       0.149000
     32 H14        117.0820   131.3450   103.6870 hn         1 7Q0       0.457500
     33 H15        118.5440   130.9120   102.9840 hn         1 7Q0       0.457500
     34 H4         120.3120   132.4090   102.5480 ha         1 7Q0       0.117000
     35 H11        111.4240   134.0480   105.4060 ha         1 7Q0       0.136000
     36 H12        112.8860   131.5870   108.5930 ha         1 7Q0       0.136000
     37 H13        115.1960   131.9240   107.7910 ha         1 7Q0       0.128000
     38 N1         116.2520   133.5500   104.3800 ns         1 7Q0      -0.167000
@<TRIPOS>BOND
     1     1     2 ar  
     2     1     6 ar  
     3     1    23 1   
     4     2     3 ar  
     5     2    24 1   
     6     3     4 ar  
     7     3    17 ar  
     8     4     5 ar  
     9     4     8 ar  
    10     5     6 ar  
    11     5     9 1   
    12     6    25 1   
    13     7    16 1   
    14     7    17 ar  
    15     7    18 ar  
    16     8    10 1   
    17     8    18 ar  
    18     9    10 1   
    19     9    26 1   
    20     9    27 1   
    21    10    28 1   
    22    10    29 1   
    23    11    12 1   
    24    11    15 2   
    25    11    38 1   
    26    12    13 ar  
    27    12    21 ar  
    28    13    19 ar  
    29    13    30 1   
    30    14    19 ar  
    31    14    20 ar  
    32    14    22 1   
    33    16    32 1   
    34    16    33 1   
    35    17    38 1   
    36    18    34 1   
    37    19    35 1   
    38    20    21 ar  
    39    20    36 1   
    40    21    37 1   
    41    31    38 1   
@<TRIPOS>SUBSTRUCTURE
     1 7Q0         1 TEMP              0 ****  ****    0 ROOT
