@<TRIPOS>MOLECULE
7Q0
   38    41     1     0     0
SMALL
No Charge or Current Charge


@<TRIPOS>ATOM
      1 C1         117.6550   137.7660   103.8280 ca         1 7Q0      -0.089000
      2 C2         117.2130   136.4650   104.1760 ca         1 7Q0      -0.114000
      3 C3         117.9940   135.3370   103.8290 ca         1 7Q0       0.035000
      4 C4         119.1840   135.5840   103.1500 ca         1 7Q0      -0.096000
      5 C5         119.6380   136.8290   102.7990 ca         1 7Q0      -0.054300
      6 C6         118.8740   137.9560   103.1350 ca         1 7Q0      -0.118000
      7 C8         118.5540   132.9580   103.6880 ca         1 7Q0       0.330000
      8 C10        120.0540   134.6150   102.7370 ca         1 7Q0      -0.025300
      9 C11        120.9710   136.7650   102.0610 c5         1 7Q0      -0.031100
     10 C12        121.2630   135.1970   102.0150 c5         1 7Q0      -0.033100
     11 C13        116.0020   132.7950   105.7170 c          1 7Q0       0.614700
     12 C14        114.5400   132.8500   106.1230 ca         1 7Q0      -0.170600
     13 C15        113.6360   133.7910   105.5660 ca         1 7Q0      -0.048000
     14 C17        111.8280   132.8960   106.9250 ca         1 7Q0       0.191000
     15 O1         116.7660   131.9690   106.2060 o          1 7Q0      -0.567100
     16 N2         118.2800   131.6340   103.8900 nv         1 7Q0      -1.074000
     17 C7         117.6600   133.9900   104.1260 ca         1 7Q0      -0.151000
     18 C9         119.7470   133.2750   102.9980 ca         1 7Q0      -0.157000
     19 C16        112.2890   133.8100   105.9690 ca         1 7Q0      -0.162500
     20 C18        112.7060   131.9590   107.4840 ca         1 7Q0      -0.162500
     21 C19        114.0540   131.9340   107.0870 ca         1 7Q0      -0.048000
     22 F1         110.5330   132.9180   107.3080 f          1 7Q0      -0.174000
     23 H1         117.0510   138.6290   104.0980 ha         1 7Q0       0.108000
     24 H2         116.2750   136.3540   104.7130 ha         1 7Q0       0.113000
     25 H3         119.2110   138.9550   102.8690 ha         1 7Q0       0.115000
     26 H5         121.7590   137.3080   102.5940 hc         1 7Q0       0.056200
     27 H6         120.9010   137.1930   101.0550 hc         1 7Q0       0.056200
     28 H7         121.3390   134.8310   100.9850 hc         1 7Q0       0.057700
     29 H8         122.2020   134.9460   102.5220 hc         1 7Q0       0.057700
     30 H10        113.9570   134.5150   104.8190 ha         1 7Q0       0.128000
     31 H9         115.6840   134.3970   104.5210 hn         1 7Q0       0.149000
     32 H14        117.6870   131.4220   104.6940 hn         1 7Q0       0.457500
     33 H15        119.0160   130.9570   103.7060 hn         1 7Q0       0.457500
     34 H4         120.4200   132.4900   102.6640 ha         1 7Q0       0.117000
     35 H11        111.6010   134.5330   105.5390 ha         1 7Q0       0.136000
     36 H12        112.3420   131.2520   108.2260 ha         1 7Q0       0.136000
     37 H13        114.7210   131.1980   107.5340 ha         1 7Q0       0.128000
     38 N1         116.4100   133.7450   104.7850 ns         1 7Q0      -0.167000
@<TRIPOS>BOND
     1     1     2 ar  
     2     1     6 ar  
     3     1    23 1   
     4     2     3 ar  
     5     2    24 1   
     6     3     4 ar  
     7     3    17 ar  
     8     4     5 ar  
     9     4     8 ar  
    10     5     6 ar  
    11     5     9 1   
    12     6    25 1   
    13     7    16 1   
    14     7    17 ar  
    15     7    18 ar  
    16     8    10 1   
    17     8    18 ar  
    18     9    10 1   
    19     9    26 1   
    20     9    27 1   
    21    10    28 1   
    22    10    29 1   
    23    11    12 1   
    24    11    15 2   
    25    11    38 1   
    26    12    13 ar  
    27    12    21 ar  
    28    13    19 ar  
    29    13    30 1   
    30    14    19 ar  
    31    14    20 ar  
    32    14    22 1   
    33    16    32 1   
    34    16    33 1   
    35    17    38 1   
    36    18    34 1   
    37    19    35 1   
    38    20    21 ar  
    39    20    36 1   
    40    21    37 1   
    41    31    38 1   
@<TRIPOS>SUBSTRUCTURE
     1 7Q0         1 TEMP              0 ****  ****    0 ROOT
