@<TRIPOS>MOLECULE
7Q1
   20    21     1     0     0
SMALL
No Charge or Current Charge


@<TRIPOS>ATOM
      1 C01          3.5230     0.6690    -0.3440 ca         1 7Q1      -0.093000
      2 C02          3.3050    -0.3470     0.6020 ca         1 7Q1      -0.109000
      3 C03          1.9940    -0.7300     0.9340 ca         1 7Q1      -0.080500
      4 C04          0.8870    -0.1030     0.3250 ca         1 7Q1      -0.105300
      5 C05          1.1170     0.9160    -0.6240 ca         1 7Q1      -0.080500
      6 C06          2.4280     1.3000    -0.9560 ca         1 7Q1      -0.109000
      7 C07         -0.5360    -0.5300     0.6880 c5         1 7Q1       0.125600
      8 C08         -1.3060    -1.1530    -0.4970 c          1 7Q1       0.548000
      9 O09         -1.0730    -2.1100    -1.2190 o          1 7Q1      -0.470000
     10 N10         -2.3700    -0.3370    -0.5660 ns         1 7Q1      -0.503500
     11 C11         -2.4480     0.6900     0.2990 c          1 7Q1       0.702100
     12 O12         -3.3290     1.5290     0.3480 o          1 7Q1      -0.488000
     13 O13         -1.3230     0.6400     1.0790 os         1 7Q1      -0.403100
     14 H1           4.5380     0.9650    -0.6010 ha         1 7Q1       0.117000
     15 H2           4.1510    -0.8370     1.0780 ha         1 7Q1       0.118500
     16 H3           1.8390    -1.5190     1.6680 ha         1 7Q1       0.119500
     17 H4           0.2790     1.4150    -1.1060 ha         1 7Q1       0.119500
     18 H5           2.5950     2.0870    -1.6880 ha         1 7Q1       0.118500
     19 H6          -0.5510    -1.2570     1.5100 h1         1 7Q1       0.105700
     20 H7          -3.0910    -0.4770    -1.2570 hn         1 7Q1       0.365500
@<TRIPOS>BOND
     1     1     2 ar  
     2     1     6 ar  
     3     1    14 1   
     4     2     3 ar  
     5     2    15 1   
     6     3     4 ar  
     7     3    16 1   
     8     4     5 ar  
     9     4     7 1   
    10     5     6 ar  
    11     5    17 1   
    12     6    18 1   
    13     7     8 1   
    14     7    13 1   
    15     7    19 1   
    16     8     9 2   
    17     8    10 1   
    18    10    11 1   
    19    10    20 1   
    20    11    12 2   
    21    11    13 1   
@<TRIPOS>SUBSTRUCTURE
     1 7Q1         1 TEMP              0 ****  ****    0 ROOT
