@<TRIPOS>MOLECULE
7Q1
   20    21     1     0     0
SMALL
bcc


@<TRIPOS>ATOM
      1 C01          3.4750     0.6040    -0.3980 ca         1 7Q1      -0.111000
      2 C02          3.2240    -0.4930     0.4140 ca         1 7Q1      -0.127000
      3 C03          1.9250    -0.7870     0.8020 ca         1 7Q1      -0.098500
      4 C04          0.8690     0.0100     0.3740 ca         1 7Q1      -0.105300
      5 C05          1.1200     1.1070    -0.4440 ca         1 7Q1      -0.098500
      6 C06          2.4210     1.4030    -0.8230 ca         1 7Q1      -0.127000
      7 C07         -0.5280    -0.3760     0.7630 c5         1 7Q1       0.102400
      8 C08         -1.2140    -1.2030    -0.3160 c          1 7Q1       0.690500
      9 O09         -0.8390    -2.2440    -0.7810 o          1 7Q1      -0.545500
     10 N10         -2.3340    -0.4930    -0.6310 ns         1 7Q1      -0.637500
     11 C11         -2.4400     0.6660     0.1010 c          1 7Q1       0.844600
     12 O12         -3.3070     1.4870     0.0530 o          1 7Q1      -0.563500
     13 O13         -1.3820     0.7530     0.9160 os         1 7Q1      -0.379900
     14 H1           4.4880     0.8400    -0.6950 ha         1 7Q1       0.135000
     15 H2           4.0400    -1.1180     0.7520 ha         1 7Q1       0.136500
     16 H3           1.7340    -1.6360     1.4470 ha         1 7Q1       0.137500
     17 H4           0.3140     1.7440    -0.7860 ha         1 7Q1       0.137500
     18 H5           2.6120     2.2620    -1.4530 ha         1 7Q1       0.136500
     19 H6          -0.5250    -0.9460     1.6970 h1         1 7Q1       0.105700
     20 H7          -3.0210    -0.7700    -1.3200 hn         1 7Q1       0.365500
@<TRIPOS>BOND
     1     1     2 ar  
     2     1     6 ar  
     3     1    14 1   
     4     2     3 ar  
     5     2    15 1   
     6     3     4 ar  
     7     3    16 1   
     8     4     5 ar  
     9     4     7 1   
    10     5     6 ar  
    11     5    17 1   
    12     6    18 1   
    13     7     8 1   
    14     7    13 1   
    15     7    19 1   
    16     8     9 2   
    17     8    10 1   
    18    10    11 1   
    19    10    20 1   
    20    11    12 2   
    21    11    13 1   
@<TRIPOS>SUBSTRUCTURE
     1 7Q1         1 TEMP              0 ****  ****    0 ROOT
