@<TRIPOS>MOLECULE
7Q2
   58    61     1     0     0
SMALL
No Charge or Current Charge


@<TRIPOS>ATOM
      1 CAA          2.2410   -17.7680    54.4680 c5         1 7Q2      -0.191400
      2 CAB          2.9810   -18.4020    53.2400 c5         1 7Q2      -0.068400
      3 CAD          0.9450   -18.5790    54.6690 c          1 7Q2       0.580100
      4 CAE          2.1200   -20.8120    54.9360 c3         1 7Q2      -0.079100
      5 CAF          1.2320   -19.9340    53.9890 c5         1 7Q2      -0.155000
      6 CAG          1.9260   -19.4130    52.6950 c5         1 7Q2      -0.061700
      7 CAH         -0.0220   -20.7550    53.5730 c6         1 7Q2      -0.052400
      8 CAI          2.3840   -20.5490    51.7410 c6         1 7Q2      -0.036700
      9 CAJ          3.1250   -19.9770    50.5040 c6         1 7Q2      -0.182400
     10 CAK          0.3440   -21.9120    52.5950 c6         1 7Q2      -0.071400
     11 CAL          1.1340   -21.4200    51.3260 c6         1 7Q2      -0.053700
     12 CAM          3.4360   -21.0890    49.5070 c          1 7Q2       0.581100
     13 CAP          1.5000   -22.5810    50.3030 c6         1 7Q2      -0.024000
     14 CAQ          2.2110   -21.9340    49.0620 c6         1 7Q2      -0.162700
     15 CAR          0.1920   -23.2770    49.7910 c6         1 7Q2      -0.065400
     16 CAS          2.4340   -22.9170    47.8520 c6         1 7Q2      -0.103700
     17 CAT          0.4230   -24.2710    48.6200 c6         1 7Q2      -0.141700
     18 CAU          1.1540   -23.6260    47.4370 c2         1 7Q2       0.373300
     19 CAY          0.2730   -25.3550    43.7800 c3         1 7Q2       0.117800
     20 NAV          0.7940   -23.6670    46.1920 n2         1 7Q2      -0.334700
     21 NAZ         -0.0440   -25.5270    42.3360 n8         1 7Q2      -0.998200
     22 OAC         -0.1530   -18.1450    54.9940 o          1 7Q2      -0.508100
     23 OAN          4.5800   -21.3370    49.1450 o          1 7Q2      -0.515100
     24 OAW         -0.3990   -24.3840    45.9310 os         1 7Q2      -0.319000
     25 H1           2.8650   -17.9060    55.3570 hc         1 7Q2       0.073200
     26 H2           2.0110   -16.7020    54.3670 hc         1 7Q2       0.073200
     27 H3           3.9070   -18.9070    53.5430 hc         1 7Q2       0.051200
     28 H4           3.2570   -17.6500    52.4900 hc         1 7Q2       0.051200
     29 H5           1.5520   -21.1110    55.8250 hc         1 7Q2       0.041367
     30 H6           2.4670   -21.7310    54.4520 hc         1 7Q2       0.041367
     31 H7           3.0150   -20.2900    55.2920 hc         1 7Q2       0.041367
     32 H8           1.1980   -18.8430    52.1020 hc         1 7Q2       0.048700
     33 H9          -0.7490   -20.0940    53.0800 hc         1 7Q2       0.052700
     34 H10         -0.5310   -21.1570    54.4600 hc         1 7Q2       0.052700
     35 H11          3.1020   -21.1810    52.2780 hc         1 7Q2       0.060700
     36 H12          4.0420   -19.4360    50.7700 hc         1 7Q2       0.067700
     37 H13          2.4160   -19.2980    50.0110 hc         1 7Q2       0.067700
     38 H14         -0.5940   -22.3950    52.2930 hc         1 7Q2       0.044200
     39 H15          0.9130   -22.6790    53.1330 hc         1 7Q2       0.044200
     40 H16          0.4470   -20.7420    50.7990 hc         1 7Q2       0.045700
     41 H20          1.4870   -21.1740    48.7380 hc         1 7Q2       0.069700
     42 H21         -0.5300   -22.5150    49.4650 hc         1 7Q2       0.046700
     43 H22         -0.2960   -23.8250    50.6070 hc         1 7Q2       0.046700
     44 H23          3.2000   -23.6590    48.1090 hc         1 7Q2       0.073200
     45 H24          2.8370   -22.3560    46.9970 hc         1 7Q2       0.073200
     46 H25         -0.5500   -24.6790    48.3200 hc         1 7Q2       0.063700
     47 H26          1.0030   -25.1370    48.9650 hc         1 7Q2       0.063700
     48 H27         -0.6430   -23.3870    44.0900 h1         1 7Q2       0.058700
     49 H28         -1.7320   -24.7580    44.3690 h1         1 7Q2       0.058700
     50 H29          0.2440   -26.3420    44.2630 h1         1 7Q2       0.039200
     51 H30          1.2970   -24.9640    43.8610 h1         1 7Q2       0.039200
     52 H31          0.6190   -26.1960    41.9230 hn         1 7Q2       0.393500
     53 H32         -0.9510   -26.0020    42.2410 hn         1 7Q2       0.393500
     54 CAO          2.4370   -23.6530    50.9670 c3         1 7Q2      -0.087100
     55 H17          1.9340   -24.1820    51.7840 hc         1 7Q2       0.038700
     56 CAX         -0.7060   -24.3960    44.5180 c3         1 7Q2       0.166600
     57 H18          2.7600   -24.4210    50.2580 hc         1 7Q2       0.038700
     58 H19          3.3520   -23.2130    51.3780 hc         1 7Q2       0.038700
@<TRIPOS>BOND
     1     1     2 1   
     2     1     3 1   
     3     1    25 1   
     4     1    26 1   
     5     2     6 1   
     6     2    27 1   
     7     2    28 1   
     8     3     5 1   
     9     3    22 2   
    10     4     5 1   
    11     4    29 1   
    12     4    30 1   
    13     4    31 1   
    14     5     6 1   
    15     5     7 1   
    16     6     8 1   
    17     6    32 1   
    18     7    10 1   
    19     7    33 1   
    20     7    34 1   
    21     8     9 1   
    22     8    11 1   
    23     8    35 1   
    24     9    12 1   
    25     9    36 1   
    26     9    37 1   
    27    10    11 1   
    28    10    38 1   
    29    10    39 1   
    30    11    13 1   
    31    11    40 1   
    32    12    14 1   
    33    12    23 2   
    34    13    14 1   
    35    13    15 1   
    36    13    54 1   
    37    14    16 1   
    38    14    41 1   
    39    15    17 1   
    40    15    42 1   
    41    15    43 1   
    42    16    18 1   
    43    16    44 1   
    44    16    45 1   
    45    17    18 1   
    46    17    46 1   
    47    17    47 1   
    48    18    20 2   
    49    19    21 1   
    50    19    50 1   
    51    19    51 1   
    52    19    56 1   
    53    20    24 1   
    54    21    52 1   
    55    21    53 1   
    56    24    56 1   
    57    48    56 1   
    58    49    56 1   
    59    54    55 1   
    60    54    57 1   
    61    54    58 1   
@<TRIPOS>SUBSTRUCTURE
     1 7Q2         1 TEMP              0 ****  ****    0 ROOT
