@<TRIPOS>MOLECULE
7Q2
   58    61     1     0     0
SMALL
bcc


@<TRIPOS>ATOM
      1 CAA          2.2210   -17.7970    54.3140 c5         1 7Q2      -0.191400
      2 CAB          2.9790   -18.5000    53.1780 c5         1 7Q2      -0.068400
      3 CAD          1.0780   -18.7320    54.6920 c          1 7Q2       0.580100
      4 CAE          2.1510   -20.8960    54.7990 c3         1 7Q2      -0.079100
      5 CAF          1.2470   -20.0180    53.9110 c5         1 7Q2      -0.155000
      6 CAG          1.9420   -19.4940    52.6510 c5         1 7Q2      -0.061700
      7 CAH         -0.0180   -20.7620    53.5160 c6         1 7Q2      -0.052400
      8 CAI          2.3630   -20.6100    51.7120 c6         1 7Q2      -0.036700
      9 CAJ          3.0790   -20.0450    50.4790 c6         1 7Q2      -0.182400
     10 CAK          0.3200   -21.8930    52.5370 c6         1 7Q2      -0.071400
     11 CAL          1.1120   -21.4170    51.3100 c6         1 7Q2      -0.053700
     12 CAM          3.3350   -21.1170    49.4570 c          1 7Q2       0.581100
     13 CAP          1.4460   -22.5470    50.3000 c6         1 7Q2      -0.024000
     14 CAQ          2.1010   -21.8850    49.0540 c6         1 7Q2      -0.162700
     15 CAR          0.1490   -23.2170    49.8210 c6         1 7Q2      -0.065400
     16 CAS          2.3520   -22.8560    47.9040 c6         1 7Q2      -0.103700
     17 CAT          0.3320   -24.1970    48.6580 c6         1 7Q2      -0.141700
     18 CAU          1.0910   -23.5720    47.5290 c2         1 7Q2       0.373300
     19 CAY          0.3860   -25.3780    43.9580 c3         1 7Q2       0.117800
     20 NAV          0.7930   -23.5920    46.2930 n2         1 7Q2      -0.433200
     21 NAZ          0.0740   -25.4620    42.5400 n8         1 7Q2      -0.887800
     22 OAC          0.1980   -18.4820    55.4780 o          1 7Q2      -0.508100
     23 OAN          4.4330   -21.3440    48.9980 o          1 7Q2      -0.515100
     24 OAW         -0.3630   -24.2780    46.0130 os         1 7Q2      -0.197300
     25 H1           2.8370   -17.5740    55.1880 hc         1 7Q2       0.073200
     26 H2           1.7940   -16.8460    53.9860 hc         1 7Q2       0.073200
     27 H3           3.8680   -19.0150    53.5470 hc         1 7Q2       0.051200
     28 H4           3.3090   -17.7990    52.4120 hc         1 7Q2       0.051200
     29 H5           1.6120   -21.1770    55.7040 hc         1 7Q2       0.041367
     30 H6           2.4480   -21.8140    54.2950 hc         1 7Q2       0.041367
     31 H7           3.0660   -20.3880    55.1070 hc         1 7Q2       0.041367
     32 H8           1.1900   -18.8950    52.1110 hc         1 7Q2       0.048700
     33 H9          -0.7160   -20.0670    53.0390 hc         1 7Q2       0.052700
     34 H10         -0.5280   -21.1720    54.3910 hc         1 7Q2       0.052700
     35 H11          3.0700   -21.2620    52.2360 hc         1 7Q2       0.060700
     36 H12          4.0160   -19.5590    50.7560 hc         1 7Q2       0.067700
     37 H13          2.4330   -19.2900    50.0160 hc         1 7Q2       0.067700
     38 H14         -0.6170   -22.3480    52.2110 hc         1 7Q2       0.044200
     39 H15          0.8660   -22.6790    53.0650 hc         1 7Q2       0.044200
     40 H16          0.4560   -20.7150    50.7720 hc         1 7Q2       0.045700
     41 H20          1.3850   -21.1280    48.7020 hc         1 7Q2       0.069700
     42 H21         -0.5560   -22.4350    49.5190 hc         1 7Q2       0.046700
     43 H22         -0.3180   -23.7590    50.6440 hc         1 7Q2       0.046700
     44 H23          3.1060   -23.5980    48.1850 hc         1 7Q2       0.073200
     45 H24          2.7440   -22.3250    47.0360 hc         1 7Q2       0.073200
     46 H25         -0.6420   -24.5640    48.3400 hc         1 7Q2       0.063700
     47 H26          0.8950   -25.0730    48.9960 hc         1 7Q2       0.063700
     48 H27         -0.4320   -23.3900    44.1390 h1         1 7Q2       0.058700
     49 H28         -1.5860   -24.6840    44.4830 h1         1 7Q2       0.058700
     50 H29          0.3110   -26.3350    44.4930 h1         1 7Q2       0.039200
     51 H30          1.4170   -25.0370    44.0660 h1         1 7Q2       0.039200
     52 H31          0.7770   -26.0170    42.0710 hn         1 7Q2       0.338300
     53 H32         -0.7980   -25.9610    42.4140 hn         1 7Q2       0.338300
     54 CAO          2.3770   -23.5970    50.9150 c3         1 7Q2      -0.087100
     55 H17          1.8820   -24.1250    51.7310 hc         1 7Q2       0.038700
     56 CAX         -0.5470   -24.3700    44.6130 c3         1 7Q2       0.143400
     57 H18          2.6760   -24.3540    50.1900 hc         1 7Q2       0.038700
     58 H19          3.2960   -23.1690    51.3150 hc         1 7Q2       0.038700
@<TRIPOS>BOND
     1     1     2 1   
     2     1     3 1   
     3     1    25 1   
     4     1    26 1   
     5     2     6 1   
     6     2    27 1   
     7     2    28 1   
     8     3     5 1   
     9     3    22 2   
    10     4     5 1   
    11     4    29 1   
    12     4    30 1   
    13     4    31 1   
    14     5     6 1   
    15     5     7 1   
    16     6     8 1   
    17     6    32 1   
    18     7    10 1   
    19     7    33 1   
    20     7    34 1   
    21     8     9 1   
    22     8    11 1   
    23     8    35 1   
    24     9    12 1   
    25     9    36 1   
    26     9    37 1   
    27    10    11 1   
    28    10    38 1   
    29    10    39 1   
    30    11    13 1   
    31    11    40 1   
    32    12    14 1   
    33    12    23 2   
    34    13    14 1   
    35    13    15 1   
    36    13    54 1   
    37    14    16 1   
    38    14    41 1   
    39    15    17 1   
    40    15    42 1   
    41    15    43 1   
    42    16    18 1   
    43    16    44 1   
    44    16    45 1   
    45    17    18 1   
    46    17    46 1   
    47    17    47 1   
    48    18    20 2   
    49    19    21 1   
    50    19    50 1   
    51    19    51 1   
    52    19    56 1   
    53    20    24 1   
    54    21    52 1   
    55    21    53 1   
    56    24    56 1   
    57    48    56 1   
    58    49    56 1   
    59    54    55 1   
    60    54    57 1   
    61    54    58 1   
@<TRIPOS>SUBSTRUCTURE
     1 7Q2         1 TEMP              0 ****  ****    0 ROOT
