@<TRIPOS>MOLECULE
7Q3
   89    89     1     0     0
SMALL
No Charge or Current Charge


@<TRIPOS>ATOM
      1 C13         -3.2000     8.7330   -19.2150 c3         1 7Q3       0.019000
      2 C15         -4.9360     6.9340   -19.5790 c          1 7Q3       0.556100
      3 C17         -5.2320     5.3930   -19.4750 c3         1 7Q3       0.144500
      4 C22         -6.7110     5.0790   -19.1290 c3         1 7Q3      -0.081400
      5 C24         -8.6640     5.2580   -17.4700 c3         1 7Q3      -0.093400
      6 C01         -3.3540     4.1830   -12.2780 c3         1 7Q3       0.040700
      7 C03         -1.9400     5.1880   -14.1020 c          1 7Q3       0.571100
      8 C05         -0.6510     5.0130   -14.9370 c3         1 7Q3       0.010000
      9 C07          0.0840     7.3010   -15.7350 c          1 7Q3       0.587100
     10 C09         -0.1170     8.3550   -16.8460 c3         1 7Q3       0.011000
     11 C11         -1.7590     8.9220   -18.6880 c          1 7Q3       0.572100
     12 C23         -7.1600     5.5310   -17.7180 c3         1 7Q3      -0.081400
     13 C25         -9.1620     5.6160   -16.0530 c3         1 7Q3       0.102000
     14 C27         -7.5700     5.0380   -14.1790 c          1 7Q3       0.592100
     15 C29         -7.1120     3.8730   -13.2500 c3         1 7Q3       0.037700
     16 C30         -8.1680     3.5490   -12.1590 c3         1 7Q3      -0.088400
     17 C31         -7.7610     2.4460   -11.1460 c3         1 7Q3      -0.075400
     18 C32         -7.4790     1.0630   -11.7880 c3         1 7Q3      -0.077400
     19 C33         -7.0870    -0.0380   -10.7780 c3         1 7Q3       0.151800
     20 C36         -4.5930     3.6830   -13.0770 c          1 7Q3       0.594100
     21 C38         -3.1060     3.3080   -11.0240 c3         1 7Q3      -0.091400
     22 C39         -1.9780     3.8410   -10.1050 c3         1 7Q3      -0.074400
     23 C40         -1.8010     3.0460    -8.7890 c3         1 7Q3      -0.078400
     24 C41         -1.3360     1.5870    -8.9900 c3         1 7Q3       0.148800
     25 N02         -2.1590     4.2170   -13.1490 ns         1 7Q3      -0.490900
     26 N06         -0.5180     6.0800   -15.9570 ns         1 7Q3      -0.478900
     27 N10         -1.4390     8.2490   -17.5250 ns         1 7Q3      -0.521900
     28 N14         -3.7140     7.3450   -19.0760 ns         1 7Q3      -0.517900
     29 N18         -4.8730     4.6790   -20.7330 nu         1 7Q3      -0.877400
     30 N20         -3.2900     3.4390   -20.7510 nv         1 7Q3      -1.100200
     31 N21         -3.4880     4.9280   -22.3450 n2         1 7Q3      -0.888100
     32 N26         -8.6080     4.7220   -15.0320 ns         1 7Q3      -0.503900
     33 N34         -8.1950    -0.3880    -9.8690 n8         1 7Q3      -0.996200
     34 N35         -5.8010     4.1810   -12.6380 ns         1 7Q3      -0.483900
     35 N42         -1.1220     0.9070    -7.6990 n8         1 7Q3      -0.998200
     36 O04         -2.7280     6.1130   -14.2660 o          1 7Q3      -0.594100
     37 O08          0.6870     7.5460   -14.6990 o          1 7Q3      -0.585100
     38 O12         -0.9290     9.5950   -19.2820 o          1 7Q3      -0.569100
     39 O16         -5.7170     7.7350   -20.0760 o          1 7Q3      -0.566100
     40 O28         -7.0540     6.1490   -14.1740 o          1 7Q3      -0.592100
     41 O37         -4.5170     2.9160   -14.0310 o          1 7Q3      -0.607100
     42 H131        -3.2190     9.0270   -20.2730 h1         1 7Q3       0.084200
     43 H132        -3.8510     9.4130   -18.6510 h1         1 7Q3       0.084200
     44 H171        -4.6140     5.0030   -18.6540 h1         1 7Q3       0.069700
     45 H222        -7.3630     5.5380   -19.8830 hc         1 7Q3       0.059700
     46 H221        -6.8660     3.9960   -19.2030 hc         1 7Q3       0.059700
     47 H241        -9.2490     5.8370   -18.1950 hc         1 7Q3       0.045700
     48 H242        -8.8830     4.2010   -17.6650 hc         1 7Q3       0.045700
     49 H011        -3.5720     5.2070   -11.9490 h1         1 7Q3       0.074700
     50 H052        -0.6920     4.0340   -15.4320 h1         1 7Q3       0.080200
     51 H051         0.2100     5.0230   -14.2570 h1         1 7Q3       0.080200
     52 H091         0.6820     8.2110   -17.5840 h1         1 7Q3       0.090200
     53 H092        -0.0120     9.3520   -16.4000 h1         1 7Q3       0.090200
     54 H231        -6.5590     5.0020   -16.9680 hc         1 7Q3       0.054200
     55 H232        -6.9650     6.6030   -17.5880 hc         1 7Q3       0.054200
     56 H252        -8.9120     6.6600   -15.8220 h1         1 7Q3       0.057200
     57 H251       -10.2560     5.5240   -16.0270 h1         1 7Q3       0.057200
     58 H1          -7.0070     2.9910   -13.8940 h1         1 7Q3       0.066700
     59 H302        -8.3880     4.4670   -11.5990 hc         1 7Q3       0.060200
     60 H301        -9.1080     3.2530   -12.6420 hc         1 7Q3       0.060200
     61 H311        -6.8780     2.7700   -10.5820 hc         1 7Q3       0.041700
     62 H312        -8.5720     2.3440   -10.4140 hc         1 7Q3       0.041700
     63 H322        -8.3570     0.7360   -12.3590 hc         1 7Q3       0.046200
     64 H321        -6.6570     1.1610   -12.5070 hc         1 7Q3       0.046200
     65 H331        -6.7920    -0.9440   -11.3260 h1         1 7Q3       0.028200
     66 H332        -6.2270     0.2970   -10.1810 h1         1 7Q3       0.028200
     67 H382        -4.0350     3.2530   -10.4430 hc         1 7Q3       0.057700
     68 H381        -2.8750     2.2840   -11.3450 hc         1 7Q3       0.057700
     69 H392        -1.0250     3.8440   -10.6500 hc         1 7Q3       0.043700
     70 H391        -2.1950     4.8860    -9.8510 hc         1 7Q3       0.043700
     71 H401        -1.0670     3.5710    -8.1660 hc         1 7Q3       0.049700
     72 H402        -2.7480     3.0530    -8.2340 hc         1 7Q3       0.049700
     73 H411        -2.0920     1.0250    -9.5560 h1         1 7Q3       0.026200
     74 H412        -0.3940     1.5720    -9.5550 h1         1 7Q3       0.026200
     75 H021        -1.4800     3.4670   -13.0830 hn         1 7Q3       0.325500
     76 H061        -0.9710     5.9550   -16.8540 hn         1 7Q3       0.313500
     77 H101        -2.2050     7.7920   -17.0400 hn         1 7Q3       0.325500
     78 H141        -3.0960     6.6220   -18.7230 hn         1 7Q3       0.322500
     79 H181        -5.4320     4.9520   -21.5330 hn         1 7Q3       0.493000
     80 H2          -4.0940     3.0880   -20.2540 hn         1 7Q3       0.463000
     81 H201        -2.4660     3.4740   -20.1680 hn         1 7Q3       0.463000
     82 H211        -2.7320     4.3230   -22.6840 hn         1 7Q3       0.383400
     83 H261        -8.9780     3.7800   -14.9690 hn         1 7Q3       0.310500
     84 H341        -7.8580    -1.0700    -9.1780 hn         1 7Q3       0.392500
     85 H342        -8.4290     0.4350    -9.3010 hn         1 7Q3       0.392500
     86 H351        -5.7720     4.8410   -11.8690 hn         1 7Q3       0.327500
     87 H421        -0.7530    -0.0360    -7.8750 hn         1 7Q3       0.394000
     88 H4          -0.3560     1.3740    -7.1990 hn         1 7Q3       0.394000
     89 C19         -3.6390     4.6120   -21.1630 c2         1 7Q3       0.814100
@<TRIPOS>BOND
     1     1    11 1   
     2     1    28 1   
     3     1    42 1   
     4     1    43 1   
     5     2     3 1   
     6     2    28 1   
     7     2    39 2   
     8     3     4 1   
     9     3    29 1   
    10     3    44 1   
    11     4    12 1   
    12     4    45 1   
    13     4    46 1   
    14     5    12 1   
    15     5    13 1   
    16     5    47 1   
    17     5    48 1   
    18     6    20 1   
    19     6    21 1   
    20     6    25 1   
    21     6    49 1   
    22     7     8 1   
    23     7    25 1   
    24     7    36 2   
    25     8    26 1   
    26     8    50 1   
    27     8    51 1   
    28     9    10 1   
    29     9    26 1   
    30     9    37 2   
    31    10    27 1   
    32    10    52 1   
    33    10    53 1   
    34    11    27 1   
    35    11    38 2   
    36    12    54 1   
    37    12    55 1   
    38    13    32 1   
    39    13    56 1   
    40    13    57 1   
    41    14    15 1   
    42    14    32 1   
    43    14    40 2   
    44    15    16 1   
    45    15    34 1   
    46    15    58 1   
    47    16    17 1   
    48    16    59 1   
    49    16    60 1   
    50    17    18 1   
    51    17    61 1   
    52    17    62 1   
    53    18    19 1   
    54    18    63 1   
    55    18    64 1   
    56    19    33 1   
    57    19    65 1   
    58    19    66 1   
    59    20    34 1   
    60    20    41 2   
    61    21    22 1   
    62    21    67 1   
    63    21    68 1   
    64    22    23 1   
    65    22    69 1   
    66    22    70 1   
    67    23    24 1   
    68    23    71 1   
    69    23    72 1   
    70    24    35 1   
    71    24    73 1   
    72    24    74 1   
    73    25    75 1   
    74    26    76 1   
    75    27    77 1   
    76    28    78 1   
    77    29    79 1   
    78    29    89 1   
    79    30    80 1   
    80    30    81 1   
    81    30    89 1   
    82    31    82 1   
    83    31    89 2   
    84    32    83 1   
    85    33    84 1   
    86    33    85 1   
    87    34    86 1   
    88    35    87 1   
    89    35    88 1   
@<TRIPOS>SUBSTRUCTURE
     1 7Q3         1 TEMP              0 ****  ****    0 ROOT
