@<TRIPOS>MOLECULE
7Q3
   89    89     1     0     0
SMALL
bcc


@<TRIPOS>ATOM
      1 C13         -4.1570     8.5400   -18.6420 c3         1 7Q3       0.019000
      2 C15         -4.2690     6.2020   -19.4160 c          1 7Q3       0.623100
      3 C17         -4.4380     4.7480   -18.9540 c3         1 7Q3       0.144500
      4 C22         -5.9260     4.3740   -18.9110 c3         1 7Q3      -0.081400
      5 C24         -8.1290     4.5360   -17.6690 c3         1 7Q3      -0.093400
      6 C01         -3.3890     4.1120   -12.6760 c3         1 7Q3       0.040700
      7 C03         -2.2670     5.6070   -14.2230 c          1 7Q3       0.638100
      8 C05         -1.0680     5.7740   -15.1540 c3         1 7Q3       0.010000
      9 C07         -0.7750     8.1650   -15.5380 c          1 7Q3       0.654100
     10 C09         -1.2000     9.3350   -16.4200 c3         1 7Q3       0.011000
     11 C11         -2.7180     8.9350   -18.3290 c          1 7Q3       0.639100
     12 C23         -6.6750     4.9810   -17.7340 c3         1 7Q3      -0.081400
     13 C25         -8.8460     5.0200   -16.4120 c3         1 7Q3       0.102000
     14 C27         -7.5000     5.0000   -14.3300 c          1 7Q3       0.659100
     15 C29         -7.1400     4.1170   -13.1320 c3         1 7Q3       0.037700
     16 C30         -8.1200     4.3930   -11.9880 c3         1 7Q3      -0.088400
     17 C31         -7.8880     3.5560   -10.7310 c3         1 7Q3      -0.075400
     18 C32         -7.9930     2.0520   -10.9530 c3         1 7Q3      -0.077400
     19 C33         -7.7400     1.2340    -9.6940 c3         1 7Q3       0.151800
     20 C36         -4.7200     3.9840   -13.4160 c          1 7Q3       0.661100
     21 C38         -3.1050     2.7930   -11.9530 c3         1 7Q3      -0.091400
     22 C39         -1.8870     2.8580   -11.0360 c3         1 7Q3      -0.074400
     23 C40         -1.6890     1.5930   -10.2070 c3         1 7Q3      -0.078400
     24 C41         -1.3810     0.3560   -11.0390 c3         1 7Q3       0.148800
     25 N02         -2.3190     4.4280   -13.5850 ns         1 7Q3      -0.557900
     26 N06         -1.1840     6.9530   -15.9560 ns         1 7Q3      -0.545900
     27 N10         -2.4960     9.1580   -17.0170 ns         1 7Q3      -0.588900
     28 N14         -4.3010     7.1180   -18.4280 ns         1 7Q3      -0.584900
     29 N18         -3.7510     3.8340   -19.8310 nu         1 7Q3      -0.822200
     30 N20         -1.6140     4.4410   -19.1350 nv         1 7Q3      -0.989800
     31 N21         -1.9970     3.4900   -21.2590 n2         1 7Q3      -0.888100
     32 N26         -8.3290     4.4110   -15.2050 ns         1 7Q3      -0.570900
     33 N34         -8.7320     1.4950    -8.6600 n8         1 7Q3      -0.885800
     34 N35         -5.7890     4.3580   -12.6970 ns         1 7Q3      -0.550900
     35 N42         -1.1270    -0.7920   -10.1810 n8         1 7Q3      -0.887800
     36 O04         -3.0980     6.4840   -14.0650 o          1 7Q3      -0.594100
     37 O08         -0.0760     8.3440   -14.5560 o          1 7Q3      -0.585100
     38 O12         -1.8480     8.9590   -19.1810 o          1 7Q3      -0.569100
     39 O16         -4.1440     6.4840   -20.5940 o          1 7Q3      -0.566100
     40 O28         -7.0960     6.1480   -14.4230 o          1 7Q3      -0.592100
     41 O37         -4.8010     3.5000   -14.5330 o          1 7Q3      -0.607100
     42 H131        -4.3850     8.7780   -19.6770 h1         1 7Q3       0.084200
     43 H132        -4.8660     9.0710   -18.0060 h1         1 7Q3       0.084200
     44 H171        -4.0530     4.6360   -17.9330 h1         1 7Q3       0.069700
     45 H222        -6.4000     4.6500   -19.8590 hc         1 7Q3       0.059700
     46 H221        -5.9800     3.2840   -18.8400 hc         1 7Q3       0.059700
     47 H241        -8.6720     4.9140   -18.5400 hc         1 7Q3       0.045700
     48 H242        -8.1920     3.4440   -17.7180 hc         1 7Q3       0.045700
     49 H011        -3.4670     4.9060   -11.9260 h1         1 7Q3       0.074700
     50 H052        -0.9800     4.9020   -15.8050 h1         1 7Q3       0.080200
     51 H051        -0.1540     5.8140   -14.5600 h1         1 7Q3       0.080200
     52 H091        -0.4580     9.4710   -17.2080 h1         1 7Q3       0.090200
     53 H092        -1.1860    10.2350   -15.8050 h1         1 7Q3       0.090200
     54 H231        -6.1600     4.6890   -16.8140 hc         1 7Q3       0.054200
     55 H232        -6.6460     6.0720   -17.7770 hc         1 7Q3       0.054200
     56 H252        -8.7610     6.1020   -16.3170 h1         1 7Q3       0.057200
     57 H251        -9.9100     4.7880   -16.4820 h1         1 7Q3       0.057200
     58 H1          -7.2270     3.0680   -13.4290 h1         1 7Q3       0.066700
     59 H302        -8.0730     5.4550   -11.7310 hc         1 7Q3       0.060200
     60 H301        -9.1300     4.2080   -12.3620 hc         1 7Q3       0.060200
     61 H311        -6.9140     3.7910   -10.2900 hc         1 7Q3       0.041700
     62 H312        -8.6300     3.8740    -9.9940 hc         1 7Q3       0.041700
     63 H322        -8.9820     1.8090   -11.3530 hc         1 7Q3       0.046200
     64 H321        -7.2650     1.7350   -11.7050 hc         1 7Q3       0.046200
     65 H331        -7.7970     0.1740    -9.9540 h1         1 7Q3       0.028200
     66 H332        -6.7050     1.4120    -9.3630 h1         1 7Q3       0.028200
     67 H382        -3.9850     2.5340   -11.3580 hc         1 7Q3       0.057700
     68 H381        -2.9900     2.0010   -12.6990 hc         1 7Q3       0.057700
     69 H392        -0.9810     3.0490   -11.6190 hc         1 7Q3       0.043700
     70 H391        -2.0020     3.7130   -10.3630 hc         1 7Q3       0.043700
     71 H401        -0.8640     1.7600    -9.5070 hc         1 7Q3       0.049700
     72 H402        -2.5780     1.4050    -9.5970 hc         1 7Q3       0.049700
     73 H411        -2.2370     0.1140   -11.6750 h1         1 7Q3       0.026200
     74 H412        -0.5500     0.5890   -11.7230 h1         1 7Q3       0.026200
     75 H021        -1.6560     3.7060   -13.8220 hn         1 7Q3       0.325500
     76 H061        -1.8480     6.9110   -16.7110 hn         1 7Q3       0.313500
     77 H101        -3.2850     9.1580   -16.3900 hn         1 7Q3       0.325500
     78 H141        -4.3750     6.8000   -17.4740 hn         1 7Q3       0.322500
     79 H181        -4.2820     3.5550   -20.6420 hn         1 7Q3       0.437800
     80 H2          -2.0090     4.9410   -18.3580 hn         1 7Q3       0.407800
     81 H201        -0.6990     4.7620   -19.3990 hn         1 7Q3       0.407800
     82 H211        -0.9870     3.5420   -21.3210 hn         1 7Q3       0.383400
     83 H261        -8.5610     3.4410   -15.0570 hn         1 7Q3       0.310500
     84 H341        -8.6000     0.8410    -7.8990 hn         1 7Q3       0.337300
     85 H342        -8.5710     2.4090    -8.2550 hn         1 7Q3       0.337300
     86 H351        -5.6420     4.8440   -11.8260 hn         1 7Q3       0.327500
     87 H421        -0.9670    -1.6130   -10.7520 hn         1 7Q3       0.338800
     88 H4          -0.2650    -0.6430    -9.6720 hn         1 7Q3       0.338800
     89 C19         -2.4090     3.9400   -20.1310 c2         1 7Q3       0.814100
@<TRIPOS>BOND
     1     1    11 1   
     2     1    28 1   
     3     1    42 1   
     4     1    43 1   
     5     2     3 1   
     6     2    28 1   
     7     2    39 2   
     8     3     4 1   
     9     3    29 1   
    10     3    44 1   
    11     4    12 1   
    12     4    45 1   
    13     4    46 1   
    14     5    12 1   
    15     5    13 1   
    16     5    47 1   
    17     5    48 1   
    18     6    20 1   
    19     6    21 1   
    20     6    25 1   
    21     6    49 1   
    22     7     8 1   
    23     7    25 1   
    24     7    36 2   
    25     8    26 1   
    26     8    50 1   
    27     8    51 1   
    28     9    10 1   
    29     9    26 1   
    30     9    37 2   
    31    10    27 1   
    32    10    52 1   
    33    10    53 1   
    34    11    27 1   
    35    11    38 2   
    36    12    54 1   
    37    12    55 1   
    38    13    32 1   
    39    13    56 1   
    40    13    57 1   
    41    14    15 1   
    42    14    32 1   
    43    14    40 2   
    44    15    16 1   
    45    15    34 1   
    46    15    58 1   
    47    16    17 1   
    48    16    59 1   
    49    16    60 1   
    50    17    18 1   
    51    17    61 1   
    52    17    62 1   
    53    18    19 1   
    54    18    63 1   
    55    18    64 1   
    56    19    33 1   
    57    19    65 1   
    58    19    66 1   
    59    20    34 1   
    60    20    41 2   
    61    21    22 1   
    62    21    67 1   
    63    21    68 1   
    64    22    23 1   
    65    22    69 1   
    66    22    70 1   
    67    23    24 1   
    68    23    71 1   
    69    23    72 1   
    70    24    35 1   
    71    24    73 1   
    72    24    74 1   
    73    25    75 1   
    74    26    76 1   
    75    27    77 1   
    76    28    78 1   
    77    29    79 1   
    78    29    89 1   
    79    30    80 1   
    80    30    81 1   
    81    30    89 1   
    82    31    82 1   
    83    31    89 2   
    84    32    83 1   
    85    33    84 1   
    86    33    85 1   
    87    34    86 1   
    88    35    87 1   
    89    35    88 1   
@<TRIPOS>SUBSTRUCTURE
     1 7Q3         1 TEMP              0 ****  ****    0 ROOT
