@<TRIPOS>MOLECULE
7Q7
   50    54     1     0     0
SMALL
abcg2


@<TRIPOS>ATOM
      1 CAZ          5.9270     1.4420    -1.0550 c3         1 7Q7       0.145900
      2 OAY          5.4610     0.1600    -0.6830 os         1 7Q7      -0.328600
      3 CAB          4.1600     0.0210    -0.3700 ca         1 7Q7       0.139100
      4 CAA          3.2360     1.0580    -0.3770 ca         1 7Q7      -0.190000
      5 CAC          3.7590    -1.2740    -0.0280 ca         1 7Q7       0.039100
      6 OBA          4.6540    -2.2950    -0.0490 os         1 7Q7      -0.330100
      7 CBB          5.3370    -2.5000     1.1810 c3         1 7Q7       0.149900
      8 CAD          2.4280    -1.5130     0.3190 ca         1 7Q7       0.139100
      9 OBC          2.1380    -2.7840     0.6520 os         1 7Q7      -0.328600
     10 CBD          0.8110    -3.0980     1.0210 c3         1 7Q7       0.145900
     11 CAE          1.4980    -0.4770     0.2990 ca         1 7Q7      -0.190000
     12 CAF          1.9030     0.8130    -0.0460 cp         1 7Q7      -0.082500
     13 CAG          0.9540     1.9470    -0.0550 cp         1 7Q7       0.477500
     14 NAH          1.4790     3.1660    -0.1290 nb         1 7Q7      -0.701000
     15 CAI          0.7090     4.2540    -0.1430 ca         1 7Q7       0.354900
     16 CAJ         -0.6710     4.2420    -0.0820 ca         1 7Q7      -0.171000
     17 CAK         -1.2320     2.9770    -0.0110 ca         1 7Q7      -0.054200
     18 NAM         -2.5160     2.5320     0.0440 na         1 7Q7      -0.307600
     19 CAL         -0.4440     1.8130    -0.0010 ca         1 7Q7       0.029400
     20 NAO         -1.2550     0.7100     0.0510 nc         1 7Q7      -0.564100
     21 CAN         -2.4800     1.1670     0.0750 cd         1 7Q7       0.482400
     22 CAP         -3.6820     0.3470     0.1340 ca         1 7Q7      -0.069900
     23 CAU         -3.6390    -1.0180    -0.2130 ca         1 7Q7      -0.058800
     24 CAX         -2.6250    -1.9060    -0.6820 cc         1 7Q7      -0.222200
     25 CAW         -3.2220    -3.1230    -0.8610 cd         1 7Q7      -0.165100
     26 NAV         -4.5410    -3.0440    -0.5330 na         1 7Q7      -0.221700
     27 CAT         -4.8340    -1.7730    -0.1370 ca         1 7Q7      -0.058200
     28 CAS         -6.0470    -1.2260     0.2690 ca         1 7Q7      -0.107000
     29 CAR         -6.0590     0.1140     0.6060 ca         1 7Q7      -0.100000
     30 CAQ         -4.8960     0.8880     0.5400 ca         1 7Q7      -0.126000
     31 H1           6.9890     1.3370    -1.2590 h1         1 7Q7       0.041033
     32 H2           5.4290     1.8090    -1.9570 h1         1 7Q7       0.041033
     33 H3           5.7920     2.1750    -0.2560 h1         1 7Q7       0.041033
     34 H4           3.5280     2.0650    -0.6340 ha         1 7Q7       0.147000
     35 H5           5.9350    -1.6300     1.4620 h1         1 7Q7       0.032367
     36 H6           4.6450    -2.7290     1.9940 h1         1 7Q7       0.032367
     37 H7           6.0030    -3.3500     1.0400 h1         1 7Q7       0.032367
     38 H8           0.8010    -4.1580     1.2620 h1         1 7Q7       0.041033
     39 H9           0.4850    -2.5350     1.8990 h1         1 7Q7       0.041033
     40 H10          0.1050    -2.9190     0.2070 h1         1 7Q7       0.041033
     41 H11          0.4640    -0.6580     0.5500 ha         1 7Q7       0.147000
     42 H12          1.2320     5.2020    -0.2060 h4         1 7Q7       0.018100
     43 H13         -1.2540     5.1530    -0.0920 ha         1 7Q7       0.128000
     44 H14         -3.3390     3.1110    -0.0090 hn         1 7Q7       0.361000
     45 H16         -1.5920    -1.6730    -0.8650 ha         1 7Q7       0.228000
     46 H17         -2.7960    -4.0530    -1.2030 h4         1 7Q7       0.215000
     47 H18         -5.1980    -3.8050    -0.5840 hn         1 7Q7       0.351000
     48 H19         -6.9470    -1.8260     0.3170 ha         1 7Q7       0.117000
     49 H20         -6.9810     0.5760     0.9320 ha         1 7Q7       0.115000
     50 H21         -4.9620     1.9270     0.8370 ha         1 7Q7       0.103000
@<TRIPOS>BOND
     1     1     2 1   
     2     1    31 1   
     3     1    32 1   
     4     1    33 1   
     5     2     3 1   
     6     3     4 ar  
     7     3     5 ar  
     8     4    12 ar  
     9     4    34 1   
    10     5     6 1   
    11     5     8 ar  
    12     6     7 1   
    13     7    35 1   
    14     7    36 1   
    15     7    37 1   
    16     8     9 1   
    17     8    11 ar  
    18     9    10 1   
    19    10    38 1   
    20    10    39 1   
    21    10    40 1   
    22    11    12 ar  
    23    11    41 1   
    24    12    13 1   
    25    13    14 ar  
    26    13    19 ar  
    27    14    15 ar  
    28    15    16 ar  
    29    15    42 1   
    30    16    17 ar  
    31    16    43 1   
    32    17    18 1   
    33    17    19 ar  
    34    18    21 1   
    35    18    44 1   
    36    19    20 1   
    37    20    21 2   
    38    21    22 1   
    39    22    23 ar  
    40    22    30 ar  
    41    23    24 1   
    42    23    27 ar  
    43    24    25 2   
    44    24    45 1   
    45    25    26 1   
    46    25    46 1   
    47    26    27 1   
    48    26    47 1   
    49    27    28 ar  
    50    28    29 ar  
    51    28    48 1   
    52    29    30 ar  
    53    29    49 1   
    54    30    50 1   
@<TRIPOS>SUBSTRUCTURE
     1 7Q7         1 TEMP              0 ****  ****    0 ROOT
