@<TRIPOS>MOLECULE
7Q7
   50    54     1     0     0
SMALL
No Charge or Current Charge


@<TRIPOS>ATOM
      1 CAZ          5.8920     1.5650    -1.6290 c3         1 7Q7       0.145900
      2 OAY          5.4800     0.3350    -1.0080 os         1 7Q7      -0.328600
      3 CAB          4.2300     0.1660    -0.4310 ca         1 7Q7       0.139100
      4 CAA          3.2760     1.2050    -0.4270 ca         1 7Q7      -0.190000
      5 CAC          3.9290    -1.0860     0.1580 ca         1 7Q7       0.039100
      6 OBA          4.9350    -2.0530     0.1010 os         1 7Q7      -0.330100
      7 CBB          4.8330    -3.3860     0.6330 c3         1 7Q7       0.149900
      8 CAD          2.6480    -1.2780     0.7600 ca         1 7Q7       0.139100
      9 OBC          2.3190    -2.4900     1.3490 os         1 7Q7      -0.328600
     10 CBD          1.0300    -2.7640     1.9290 c3         1 7Q7       0.145900
     11 CAE          1.7140    -0.2160     0.7530 ca         1 7Q7      -0.190000
     12 CAF          1.9950     1.0380     0.1560 cp         1 7Q7      -0.082500
     13 CAG          0.9780     2.1600     0.1500 cp         1 7Q7       0.477500
     14 NAH          1.4810     3.4280     0.1800 nb         1 7Q7      -0.701000
     15 CAI          0.6260     4.4790     0.1770 ca         1 7Q7       0.354900
     16 CAJ         -0.7690     4.3230     0.1350 ca         1 7Q7      -0.171000
     17 CAK         -1.2670     3.0180     0.0910 ca         1 7Q7      -0.054200
     18 NAM         -2.5700     2.6200     0.0310 na         1 7Q7      -0.307600
     19 CAL         -0.4390     1.9270     0.0930 ca         1 7Q7       0.029400
     20 NAO         -1.2270     0.7730     0.0190 nc         1 7Q7      -0.564100
     21 CAN         -2.4950     1.2240    -0.0170 cd         1 7Q7       0.482400
     22 CAP         -3.6800     0.3270    -0.0700 ca         1 7Q7      -0.069900
     23 CAU         -3.6020    -1.0720    -0.2920 ca         1 7Q7      -0.058800
     24 CAX         -2.4880    -1.9450    -0.5530 cc         1 7Q7      -0.222200
     25 CAW         -2.9840    -3.2330    -0.7040 cd         1 7Q7      -0.165100
     26 NAV         -4.3880    -3.1990    -0.5480 na         1 7Q7      -0.221700
     27 CAT         -4.7160    -1.8740    -0.3060 ca         1 7Q7      -0.058200
     28 CAS         -5.9990    -1.3560    -0.0970 ca         1 7Q7      -0.107000
     29 CAR         -6.1250     0.0260     0.1320 ca         1 7Q7      -0.100000
     30 CAQ         -4.9810     0.8560     0.1490 ca         1 7Q7      -0.126000
     31 H1           6.9160     1.4720    -2.0130 h1         1 7Q7       0.041033
     32 H2           5.2360     1.8160    -2.4720 h1         1 7Q7       0.041033
     33 H3           5.8750     2.3920    -0.9080 h1         1 7Q7       0.041033
     34 H4           3.5080     2.1600    -0.8880 ha         1 7Q7       0.147000
     35 H5           4.6660    -3.3650     1.7170 h1         1 7Q7       0.032367
     36 H6           4.0180    -3.9400     0.1510 h1         1 7Q7       0.032367
     37 H7           5.7650    -3.9360     0.4500 h1         1 7Q7       0.032367
     38 H8           0.9990    -3.7900     2.3150 h1         1 7Q7       0.041033
     39 H9           0.8240    -2.0830     2.7650 h1         1 7Q7       0.041033
     40 H10          0.2340    -2.6590     1.1810 h1         1 7Q7       0.041033
     41 H11          0.7500    -0.3440     1.2310 ha         1 7Q7       0.147000
     42 H12          1.0740     5.4720     0.2070 h4         1 7Q7       0.018100
     43 H13         -1.4260     5.1890     0.1320 ha         1 7Q7       0.128000
     44 H14         -3.4060     3.1860     0.0120 hn         1 7Q7       0.361000
     45 H16         -1.4380    -1.6770    -0.6360 ha         1 7Q7       0.228000
     46 H17         -2.4490    -4.1580    -0.9140 h4         1 7Q7       0.215000
     47 H18         -5.0290    -3.9850    -0.6060 hn         1 7Q7       0.351000
     48 H19         -6.8750    -2.0010    -0.1110 ha         1 7Q7       0.117000
     49 H20         -7.1090     0.4570     0.3020 ha         1 7Q7       0.115000
     50 H21         -5.1200     1.9160     0.3410 ha         1 7Q7       0.103000
@<TRIPOS>BOND
     1     1     2 1   
     2     1    31 1   
     3     1    32 1   
     4     1    33 1   
     5     2     3 1   
     6     3     4 ar  
     7     3     5 ar  
     8     4    12 ar  
     9     4    34 1   
    10     5     6 1   
    11     5     8 ar  
    12     6     7 1   
    13     7    35 1   
    14     7    36 1   
    15     7    37 1   
    16     8     9 1   
    17     8    11 ar  
    18     9    10 1   
    19    10    38 1   
    20    10    39 1   
    21    10    40 1   
    22    11    12 ar  
    23    11    41 1   
    24    12    13 1   
    25    13    14 ar  
    26    13    19 ar  
    27    14    15 ar  
    28    15    16 ar  
    29    15    42 1   
    30    16    17 ar  
    31    16    43 1   
    32    17    18 1   
    33    17    19 ar  
    34    18    21 1   
    35    18    44 1   
    36    19    20 1   
    37    20    21 2   
    38    21    22 1   
    39    22    23 ar  
    40    22    30 ar  
    41    23    24 1   
    42    23    27 ar  
    43    24    25 2   
    44    24    45 1   
    45    25    26 1   
    46    25    46 1   
    47    26    27 1   
    48    26    47 1   
    49    27    28 ar  
    50    28    29 ar  
    51    28    48 1   
    52    29    30 ar  
    53    29    49 1   
    54    30    50 1   
@<TRIPOS>SUBSTRUCTURE
     1 7Q7         1 TEMP              0 ****  ****    0 ROOT
