@<TRIPOS>MOLECULE
7Q9
   95    94     1     0     0
SMALL
No Charge or Current Charge


@<TRIPOS>ATOM
      1 C1          31.0780    14.2980    18.8070 c3         1 7Q9       0.206600
      2 C2          29.8680    14.1660    17.8260 c3         1 7Q9       0.123300
      3 C3          30.1210    14.8790    16.4700 c3         1 7Q9       0.169600
      4 N           33.5050     9.8140    14.8600 n4         1 7Q9      -0.485000
      5 C11         32.7880    12.3240    15.4420 c3         1 7Q9       0.217600
      6 O11         32.3330    13.9000    18.2090 os         1 7Q9      -0.607400
      7 C12         33.9000    11.2880    15.1220 c3         1 7Q9       0.053600
      8 O12         32.1380    11.9890    16.6750 os         1 7Q9      -0.585400
      9 C13         32.4540     9.7310    13.7440 c3         1 7Q9       0.076567
     10 O13         34.2800    12.2480    18.0610 o          1 7Q9      -0.803500
     11 C14         32.9450     9.1650    16.1330 c3         1 7Q9       0.076567
     12 O14         32.2160    11.5320    19.1990 o          1 7Q9      -0.803500
     13 C15         34.7560     9.0400    14.4250 c3         1 7Q9       0.076567
     14 O21         29.5460    12.7770    17.5800 os         1 7Q9      -0.451100
     15 C22         28.7810    10.5730    18.1280 c3         1 7Q9      -0.132400
     16 O22         28.6160    12.4580    19.6570 o          1 7Q9      -0.488000
     17 C23         27.3960    10.3610    17.4790 c3         1 7Q9      -0.078100
     18 C31         28.5520    13.9280    14.8710 c          1 7Q9       0.610100
     19 O31         28.8820    14.9510    15.7270 os         1 7Q9      -0.453100
     20 C32         27.1440    14.1060    14.3000 c3         1 7Q9      -0.142400
     21 O32         29.2900    13.0030    14.5630 o          1 7Q9      -0.505000
     22 C33         27.1800    14.8340    12.9340 c3         1 7Q9      -0.064400
     23 C34         25.7860    15.1660    12.3500 c3         1 7Q9      -0.076400
     24 C35         24.9360    13.9270    11.9820 c3         1 7Q9      -0.077400
     25 C36         23.5870    14.2970    11.3260 c3         1 7Q9      -0.075400
     26 C37         22.7350    13.0590    10.9620 c3         1 7Q9      -0.069400
     27 C38         21.3980    13.4010    10.2680 c3         1 7Q9      -0.041200
     28 C39         20.4520    14.1920    11.1550 c2         1 7Q9      -0.221200
     29 C310        19.4690    13.6970    11.9270 c2         1 7Q9      -0.213200
     30 C311        19.1080    12.2340    12.1150 c3         1 7Q9      -0.043200
     31 C312        17.9790    11.7640    11.1730 c3         1 7Q9      -0.070400
     32 C313        16.6240    12.4700    11.4150 c3         1 7Q9      -0.076400
     33 C314        15.5000    11.9470    10.4910 c3         1 7Q9      -0.073400
     34 C315        14.1500    12.6910    10.6380 c3         1 7Q9      -0.072400
     35 C316        13.4660    12.5110    12.0140 c3         1 7Q9      -0.076400
     36 C317        12.0830    13.1930    12.0910 c3         1 7Q9      -0.076400
     37 C318        11.3990    13.0180    13.4610 c3         1 7Q9      -0.088100
     38 H1          31.1450    15.3500    19.1150 h1         1 7Q9       0.055700
     39 H2          30.8800    13.7250    19.7220 h1         1 7Q9       0.055700
     40 H3          29.0100    14.6670    18.2940 h1         1 7Q9       0.068700
     41 H4          30.9150    14.3750    15.9050 h1         1 7Q9       0.072200
     42 H5          30.4740    15.8950    16.6860 h1         1 7Q9       0.072200
     43 H6          33.2410    13.3220    15.5030 h1         1 7Q9       0.060700
     44 H7          32.0610    12.3440    14.6210 h1         1 7Q9       0.060700
     45 H8          34.6250    11.2920    15.9370 hx         1 7Q9       0.103200
     46 H9          34.4180    11.6390    14.2270 hx         1 7Q9       0.103200
     47 H10         31.5500    10.2550    14.0610 hx         1 7Q9       0.092033
     48 H11         32.8520    10.1950    12.8380 hx         1 7Q9       0.092033
     49 H12         32.2200     8.6830    13.5480 hx         1 7Q9       0.092033
     50 H13         33.6790     9.2560    16.9360 hx         1 7Q9       0.092033
     51 H14         32.0220     9.6730    16.4200 hx         1 7Q9       0.092033
     52 H15         32.7360     8.1110    15.9390 hx         1 7Q9       0.092033
     53 H17         35.5040     9.0900    15.2190 hx         1 7Q9       0.092033
     54 H18         34.4880     7.9980    14.2390 hx         1 7Q9       0.092033
     55 H19         35.1570     9.4850    13.5130 hx         1 7Q9       0.092033
     56 H20         28.8760     9.9110    18.9960 hc         1 7Q9       0.068700
     57 H21         29.5340    10.3280    17.3690 hc         1 7Q9       0.068700
     58 H22         27.2780     9.3190    17.1580 hc         1 7Q9       0.039700
     59 H23         26.5950    10.5960    18.1900 hc         1 7Q9       0.039700
     60 H24         27.2780    11.0070    16.5990 hc         1 7Q9       0.039700
     61 H25         26.5550    14.7210    14.9900 hc         1 7Q9       0.073200
     62 H26         26.6890    13.1170    14.1770 hc         1 7Q9       0.073200
     63 H27         27.7410    14.2270    12.2120 hc         1 7Q9       0.048700
     64 H28         27.7370    15.7730    13.0500 hc         1 7Q9       0.048700
     65 H29         25.9270    15.7770    11.4500 hc         1 7Q9       0.040200
     66 H30         25.2330    15.7880    13.0660 hc         1 7Q9       0.040200
     67 H31         24.7370    13.3360    12.8840 hc         1 7Q9       0.037700
     68 H32         25.5070    13.2890    11.2970 hc         1 7Q9       0.037700
     69 H33         23.7760    14.8840    10.4180 hc         1 7Q9       0.038700
     70 H34         23.0220    14.9400    12.0120 hc         1 7Q9       0.038700
     71 H35         22.5280    12.4790    11.8700 hc         1 7Q9       0.038200
     72 H36         23.3170    12.4090    10.2980 hc         1 7Q9       0.038200
     73 H37         20.9260    12.4650     9.9470 hc         1 7Q9       0.042200
     74 H38         21.6010    13.9610     9.3460 hc         1 7Q9       0.042200
     75 H39         20.6130    15.2710    11.1150 ha         1 7Q9       0.166000
     76 H40         18.8510    14.3810    12.5130 ha         1 7Q9       0.167000
     77 H41         18.8110    12.0540    13.1560 hc         1 7Q9       0.044200
     78 H42         19.9860    11.6000    11.9450 hc         1 7Q9       0.044200
     79 H43         18.2910    11.9210    10.1330 hc         1 7Q9       0.038200
     80 H44         17.8440    10.6820    11.3020 hc         1 7Q9       0.038200
     81 H45         16.3360    12.3260    12.4630 hc         1 7Q9       0.039200
     82 H46         16.7430    13.5490    11.2580 hc         1 7Q9       0.039200
     83 H47         15.8300    12.0390     9.4490 hc         1 7Q9       0.036200
     84 H48         15.3440    10.8770    10.6750 hc         1 7Q9       0.036200
     85 H49         14.3050    13.7600    10.4460 hc         1 7Q9       0.036700
     86 H50         13.4710    12.3280     9.8570 hc         1 7Q9       0.036700
     87 H51         13.3510    11.4390    12.2220 hc         1 7Q9       0.038200
     88 H52         14.1070    12.9250    12.8010 hc         1 7Q9       0.038200
     89 H53         12.1940    14.2640    11.8830 hc         1 7Q9       0.035700
     90 H54         11.4290    12.7810    11.3120 hc         1 7Q9       0.035700
     91 H55         10.4230    13.5170    13.4680 hc         1 7Q9       0.031367
     92 H56         11.2430    11.9550    13.6840 hc         1 7Q9       0.031367
     93 H57         12.0130    13.4530    14.2600 hc         1 7Q9       0.031367
     94 C21         28.9710    12.0250    18.5690 c          1 7Q9       0.615100
     95 P           32.7940    12.3550    18.0980 p5         1 7Q9       1.383800
@<TRIPOS>BOND
     1     1     2 1   
     2     1     6 1   
     3     1    38 1   
     4     1    39 1   
     5     2     3 1   
     6     2    14 1   
     7     2    40 1   
     8     3    19 1   
     9     3    41 1   
    10     3    42 1   
    11     4     7 1   
    12     4     9 1   
    13     4    11 1   
    14     4    13 1   
    15     5     7 1   
    16     5     8 1   
    17     5    43 1   
    18     5    44 1   
    19     6    95 1   
    20     7    45 1   
    21     7    46 1   
    22     8    95 1   
    23     9    47 1   
    24     9    48 1   
    25     9    49 1   
    26    10    95 1   
    27    11    50 1   
    28    11    51 1   
    29    11    52 1   
    30    12    95 1   
    31    13    53 1   
    32    13    54 1   
    33    13    55 1   
    34    14    94 1   
    35    15    17 1   
    36    15    56 1   
    37    15    57 1   
    38    15    94 1   
    39    16    94 2   
    40    17    58 1   
    41    17    59 1   
    42    17    60 1   
    43    18    19 1   
    44    18    20 1   
    45    18    21 2   
    46    20    22 1   
    47    20    61 1   
    48    20    62 1   
    49    22    23 1   
    50    22    63 1   
    51    22    64 1   
    52    23    24 1   
    53    23    65 1   
    54    23    66 1   
    55    24    25 1   
    56    24    67 1   
    57    24    68 1   
    58    25    26 1   
    59    25    69 1   
    60    25    70 1   
    61    26    27 1   
    62    26    71 1   
    63    26    72 1   
    64    27    28 1   
    65    27    73 1   
    66    27    74 1   
    67    28    29 2   
    68    28    75 1   
    69    29    30 1   
    70    29    76 1   
    71    30    31 1   
    72    30    77 1   
    73    30    78 1   
    74    31    32 1   
    75    31    79 1   
    76    31    80 1   
    77    32    33 1   
    78    32    81 1   
    79    32    82 1   
    80    33    34 1   
    81    33    83 1   
    82    33    84 1   
    83    34    35 1   
    84    34    85 1   
    85    34    86 1   
    86    35    36 1   
    87    35    87 1   
    88    35    88 1   
    89    36    37 1   
    90    36    89 1   
    91    36    90 1   
    92    37    91 1   
    93    37    92 1   
    94    37    93 1   
@<TRIPOS>SUBSTRUCTURE
     1 7Q9         1 TEMP              0 ****  ****    0 ROOT
