@<TRIPOS>MOLECULE
7Q9
   95    94     1     0     0
SMALL
bcc


@<TRIPOS>ATOM
      1 C1          29.7250    13.5810    19.1220 c3         1 7Q9       0.183400
      2 C2          28.7230    13.7200    17.9880 c3         1 7Q9       0.100100
      3 C3          29.1260    14.8010    17.0030 c3         1 7Q9       0.146400
      4 N           33.7790    10.4380    15.0680 n4         1 7Q9      -0.597800
      5 C11         32.3250    12.3990    15.9110 c3         1 7Q9       0.194400
      6 O11         31.0500    13.3760    18.6850 os         1 7Q9      -0.584200
      7 C12         33.7040    11.8120    15.6850 c3         1 7Q9       0.081800
      8 O12         31.5180    11.6910    16.8170 os         1 7Q9      -0.562200
      9 C13         33.0540    10.3900    13.7690 c3         1 7Q9       0.104767
     10 O13         33.1510    12.0300    18.7630 o          1 7Q9      -0.803500
     11 C14         33.2400     9.3850    15.9790 c3         1 7Q9       0.104767
     12 O14         30.8320    10.8260    19.0580 o          1 7Q9      -0.803500
     13 C15         35.2210    10.1450    14.8230 c3         1 7Q9       0.104767
     14 O21         28.5910    12.5150    17.2360 os         1 7Q9      -0.427900
     15 C22         27.8810    10.3250    16.8120 c3         1 7Q9      -0.132400
     16 O22         27.2140    11.6020    18.7430 o          1 7Q9      -0.537000
     17 C23         26.9240     9.2230    17.2290 c3         1 7Q9      -0.078100
     18 C31         28.3300    14.4920    14.7720 c          1 7Q9       0.659100
     19 O31         28.1150    14.9430    16.0090 os         1 7Q9      -0.429900
     20 C32         27.0940    14.6310    13.9240 c3         1 7Q9      -0.142400
     21 O32         29.3770    14.0350    14.3920 o          1 7Q9      -0.554000
     22 C33         27.3880    14.6700    12.4300 c3         1 7Q9      -0.064400
     23 C34         26.1320    14.8610    11.5820 c3         1 7Q9      -0.076400
     24 C35         25.2110    13.6470    11.5400 c3         1 7Q9      -0.077400
     25 C36         23.9830    13.8650    10.6640 c3         1 7Q9      -0.075400
     26 C37         23.1260    12.6130    10.5270 c3         1 7Q9      -0.069400
     27 C38         21.9030    12.7850     9.6190 c3         1 7Q9      -0.041200
     28 C39         20.9040    13.7740    10.1440 c2         1 7Q9      -0.171200
     29 C310        19.8460    13.4990    10.9090 c2         1 7Q9      -0.163200
     30 C311        19.4180    12.1490    11.3940 c3         1 7Q9      -0.043200
     31 C312        18.0300    11.7260    10.9030 c3         1 7Q9      -0.070400
     32 C313        16.8870    12.5790    11.4400 c3         1 7Q9      -0.076400
     33 C314        15.5210    12.0680    10.9950 c3         1 7Q9      -0.073400
     34 C315        14.3440    12.9220    11.4580 c3         1 7Q9      -0.072400
     35 C316        14.1500    12.9580    12.9700 c3         1 7Q9      -0.076400
     36 C317        12.8900    13.7070    13.3900 c3         1 7Q9      -0.076400
     37 C318        12.6960    13.7400    14.9000 c3         1 7Q9      -0.088100
     38 H1          29.7090    14.5180    19.6860 h1         1 7Q9       0.055700
     39 H2          29.4010    12.7920    19.8040 h1         1 7Q9       0.055700
     40 H3          27.7600    13.9880    18.4360 h1         1 7Q9       0.068700
     41 H4          30.0960    14.5960    16.5530 h1         1 7Q9       0.072200
     42 H5          29.1870    15.7530    17.5320 h1         1 7Q9       0.072200
     43 H6          32.5070    13.4310    16.2320 h1         1 7Q9       0.060700
     44 H7          31.7730    12.4730    14.9730 h1         1 7Q9       0.060700
     45 H8          34.2530    11.7620    16.6230 hx         1 7Q9       0.103200
     46 H9          34.2410    12.4750    15.0050 hx         1 7Q9       0.103200
     47 H10         31.9890    10.5180    13.9330 hx         1 7Q9       0.092033
     48 H11         33.4300    11.1800    13.1220 hx         1 7Q9       0.092033
     49 H12         33.2320     9.4210    13.3090 hx         1 7Q9       0.092033
     50 H13         33.7240     9.4750    16.9480 hx         1 7Q9       0.092033
     51 H14         32.1700     9.5030    16.0900 hx         1 7Q9       0.092033
     52 H15         33.4610     8.4130    15.5450 hx         1 7Q9       0.092033
     53 H17         35.7580    10.1890    15.7680 hx         1 7Q9       0.092033
     54 H18         35.3140     9.1510    14.3930 hx         1 7Q9       0.092033
     55 H19         35.6260    10.8820    14.1340 hx         1 7Q9       0.092033
     56 H20         28.9110     9.9590    16.8040 hc         1 7Q9       0.068700
     57 H21         27.6780    10.6520    15.7890 hc         1 7Q9       0.068700
     58 H22         27.0010     8.3830    16.5400 hc         1 7Q9       0.039700
     59 H23         27.1460     8.8510    18.2280 hc         1 7Q9       0.039700
     60 H24         25.8890     9.5640    17.2190 hc         1 7Q9       0.039700
     61 H25         26.5470    15.5270    14.2290 hc         1 7Q9       0.073200
     62 H26         26.4420    13.7870    14.1710 hc         1 7Q9       0.073200
     63 H27         27.8960    13.7530    12.1230 hc         1 7Q9       0.048700
     64 H28         28.0810    15.4900    12.2270 hc         1 7Q9       0.048700
     65 H29         26.4370    15.1010    10.5600 hc         1 7Q9       0.040200
     66 H30         25.5770    15.7330    11.9440 hc         1 7Q9       0.040200
     67 H31         24.8850    13.3780    12.5500 hc         1 7Q9       0.037700
     68 H32         25.7750    12.7860    11.1640 hc         1 7Q9       0.037700
     69 H33         24.3010    14.1920     9.6680 hc         1 7Q9       0.038700
     70 H34         23.3870    14.6860    11.0780 hc         1 7Q9       0.038700
     71 H35         22.7920    12.2850    11.5160 hc         1 7Q9       0.038200
     72 H36         23.7440    11.8030    10.1260 hc         1 7Q9       0.038200
     73 H37         21.4340    11.8090     9.4760 hc         1 7Q9       0.042200
     74 H38         22.2420    13.1070     8.6300 hc         1 7Q9       0.042200
     75 H39         21.0810    14.8150     9.8900 ha         1 7Q9       0.116000
     76 H40         19.2240    14.3340    11.2220 ha         1 7Q9       0.117000
     77 H41         19.4100    12.1530    12.4900 hc         1 7Q9       0.044200
     78 H42         20.1460    11.3890    11.1030 hc         1 7Q9       0.044200
     79 H43         18.0140    11.7350     9.8080 hc         1 7Q9       0.038200
     80 H44         17.8630    10.6860    11.2020 hc         1 7Q9       0.038200
     81 H45         16.9460    12.5980    12.5330 hc         1 7Q9       0.039200
     82 H46         17.0020    13.6170    11.1110 hc         1 7Q9       0.039200
     83 H47         15.5070    12.0090     9.9020 hc         1 7Q9       0.036200
     84 H48         15.3840    11.0410    11.3530 hc         1 7Q9       0.036200
     85 H49         14.4660    13.9440    11.0810 hc         1 7Q9       0.036700
     86 H50         13.4280    12.5390    10.9960 hc         1 7Q9       0.036700
     87 H51         14.1040    11.9320    13.3520 hc         1 7Q9       0.038200
     88 H52         15.0160    13.4230    13.4510 hc         1 7Q9       0.038200
     89 H53         12.9310    14.7290    13.0030 hc         1 7Q9       0.035700
     90 H54         12.0200    13.2400    12.9190 hc         1 7Q9       0.035700
     91 H55         11.7890    14.2780    15.1760 hc         1 7Q9       0.031367
     92 H56         12.6190    12.7310    15.3100 hc         1 7Q9       0.031367
     93 H57         13.5360    14.2320    15.3940 hc         1 7Q9       0.031367
     94 C21         27.8410    11.5250    17.7170 c          1 7Q9       0.664100
     95 P           31.6970    11.8800    18.4470 p5         1 7Q9       1.383800
@<TRIPOS>BOND
     1     1     2 1   
     2     1     6 1   
     3     1    38 1   
     4     1    39 1   
     5     2     3 1   
     6     2    14 1   
     7     2    40 1   
     8     3    19 1   
     9     3    41 1   
    10     3    42 1   
    11     4     7 1   
    12     4     9 1   
    13     4    11 1   
    14     4    13 1   
    15     5     7 1   
    16     5     8 1   
    17     5    43 1   
    18     5    44 1   
    19     6    95 1   
    20     7    45 1   
    21     7    46 1   
    22     8    95 1   
    23     9    47 1   
    24     9    48 1   
    25     9    49 1   
    26    10    95 1   
    27    11    50 1   
    28    11    51 1   
    29    11    52 1   
    30    12    95 1   
    31    13    53 1   
    32    13    54 1   
    33    13    55 1   
    34    14    94 1   
    35    15    17 1   
    36    15    56 1   
    37    15    57 1   
    38    15    94 1   
    39    16    94 2   
    40    17    58 1   
    41    17    59 1   
    42    17    60 1   
    43    18    19 1   
    44    18    20 1   
    45    18    21 2   
    46    20    22 1   
    47    20    61 1   
    48    20    62 1   
    49    22    23 1   
    50    22    63 1   
    51    22    64 1   
    52    23    24 1   
    53    23    65 1   
    54    23    66 1   
    55    24    25 1   
    56    24    67 1   
    57    24    68 1   
    58    25    26 1   
    59    25    69 1   
    60    25    70 1   
    61    26    27 1   
    62    26    71 1   
    63    26    72 1   
    64    27    28 1   
    65    27    73 1   
    66    27    74 1   
    67    28    29 2   
    68    28    75 1   
    69    29    30 1   
    70    29    76 1   
    71    30    31 1   
    72    30    77 1   
    73    30    78 1   
    74    31    32 1   
    75    31    79 1   
    76    31    80 1   
    77    32    33 1   
    78    32    81 1   
    79    32    82 1   
    80    33    34 1   
    81    33    83 1   
    82    33    84 1   
    83    34    35 1   
    84    34    85 1   
    85    34    86 1   
    86    35    36 1   
    87    35    87 1   
    88    35    88 1   
    89    36    37 1   
    90    36    89 1   
    91    36    90 1   
    92    37    91 1   
    93    37    92 1   
    94    37    93 1   
@<TRIPOS>SUBSTRUCTURE
     1 7Q9         1 TEMP              0 ****  ****    0 ROOT
