@<TRIPOS>MOLECULE
7QB
  129   135     1     0     0
SMALL
abcg2


@<TRIPOS>ATOM
      1 N1          57.9260   -18.6830    21.5280 nu         1 7QB      -0.993000
      2 N3          50.8160   -15.5350    20.7200 nh         1 7QB      -0.801400
      3 C4          57.2870   -14.5460    21.8070 ca         1 7QB      -0.148000
      4 C5          57.0400   -15.2220    20.6180 ca         1 7QB      -0.064000
      5 C6          57.2410   -16.5860    20.5310 ca         1 7QB      -0.157000
      6 C7          57.6730   -17.3210    21.6390 ca         1 7QB       0.362000
      7 C8          57.1830   -19.5830    20.8010 ca         1 7QB       0.440000
      8 C10         55.1470   -20.2660    19.7140 ca         1 7QB       0.678900
      9 C13         51.2770   -17.9190    20.9480 ca         1 7QB      -0.209000
     10 C15         52.5660   -16.5810    19.4210 ca         1 7QB      -0.250000
     11 C17         54.5980   -16.4550    17.4930 c3         1 7QB       0.144900
     12 C21         47.6650   -11.3610    20.9630 c          1 7QB       0.593100
     13 C22         45.9140   -11.6900    19.3150 c3         1 7QB       0.059700
     14 C24         44.4030    -9.1100    19.0230 c5         1 7QB       0.113000
     15 C26         42.4710    -8.4830    20.2300 c5         1 7QB      -0.128400
     16 C28         41.8590   -10.8530    20.7980 c          1 7QB       0.606100
     17 C48         57.7410   -20.8180    20.3890 ca         1 7QB      -0.375300
     18 C3          57.7200   -15.2630    22.9070 ca         1 7QB      -0.062000
     19 C2          57.9010   -16.6460    22.8530 ca         1 7QB      -0.206600
     20 C1          58.3780   -17.3900    24.0560 c          1 7QB       0.615700
     21 O           59.1090   -18.3760    23.9600 o          1 7QB      -0.620100
     22 N           57.9730   -16.9250    25.2430 ns         1 7QB      -0.495900
     23 C           58.3880   -17.5280    26.4880 c3         1 7QB       0.093300
     24 C47         56.9280   -21.6780    19.6660 ca         1 7QB       0.461900
     25 N9          55.6780   -21.4300    19.3210 nb         1 7QB      -0.778000
     26 C9          55.8630   -19.3290    20.4650 ca         1 7QB      -0.303000
     27 N2          53.8550   -20.0620    19.3580 nu         1 7QB      -0.939900
     28 C11         53.0920   -18.9270    19.6970 ca         1 7QB       0.195000
     29 C16         53.3250   -17.6890    19.0740 ca         1 7QB       0.175100
     30 O1          54.3170   -17.6630    18.1690 os         1 7QB      -0.325100
     31 C14         51.5270   -16.6730    20.3640 ca         1 7QB       0.351000
     32 C12         52.0700   -19.0100    20.6250 ca         1 7QB      -0.049000
     33 C46         50.3820   -14.6130    19.6830 c6         1 7QB       0.203800
     34 C45         50.0970   -13.2450    20.2680 c6         1 7QB       0.159300
     35 N4          49.1070   -13.3410    21.3260 n3         1 7QB      -0.739600
     36 C19         49.5720   -14.2380    22.3640 c6         1 7QB       0.159300
     37 C18         49.8590   -15.6180    21.8030 c6         1 7QB       0.203800
     38 O2          47.4310   -10.1650    21.0730 o          1 7QB      -0.610100
     39 N5          47.0050   -12.1680    20.1250 ns         1 7QB      -0.482900
     40 C41         45.4970   -12.7420    18.2530 c3         1 7QB      -0.045000
     41 C44         46.7240   -13.0760    17.3970 c3         1 7QB      -0.090100
     42 C43         44.9460   -14.0300    18.8700 c3         1 7QB      -0.090100
     43 C42         44.4300   -12.1330    17.3420 c3         1 7QB      -0.090100
     44 C23         44.7640   -11.2900    20.2430 c          1 7QB       0.608100
     45 O3          44.4680   -11.9930    21.2000 o          1 7QB      -0.610100
     46 N6          44.0770   -10.1670    19.9750 n          1 7QB      -0.384800
     47 C27         42.9620    -9.8060    20.8300 c5         1 7QB       0.035700
     48 C25         43.7370    -7.8860    19.6250 c5         1 7QB       0.151300
     49 O4          44.6020    -7.3680    20.6100 oh         1 7QB      -0.641000
     50 N7          41.1940   -10.9950    21.9540 ns         1 7QB      -0.500900
     51 C29         39.9970   -11.8020    22.0720 c3         1 7QB       0.163000
     52 C30         39.6800   -12.0280    23.5460 c3         1 7QB      -0.103100
     53 C31         38.8190   -11.1710    21.3600 ca         1 7QB      -0.087300
     54 C36         38.5760    -9.8040    21.4450 ca         1 7QB      -0.097500
     55 C35         37.4710    -9.2410    20.8300 ca         1 7QB      -0.095500
     56 C34         36.5740   -10.0310    20.1080 ca         1 7QB      -0.008000
     57 C33         36.8240   -11.4000    20.0170 ca         1 7QB      -0.095500
     58 C32         37.9300   -11.9590    20.6390 ca         1 7QB      -0.097500
     59 C37         35.4100    -9.4370    19.4520 cc         1 7QB      -0.181000
     60 C39         34.1090    -9.8660    19.4170 cd         1 7QB       0.300300
     61 C40         33.5580   -11.0740    20.0970 c3         1 7QB      -0.121400
     62 N8          33.2620    -9.0660    18.6990 nd         1 7QB      -0.636000
     63 C38         33.8780    -8.0490    18.1940 cc         1 7QB       0.413300
     64 S           35.5520    -7.9740    18.5460 ss         1 7QB      -0.034400
     65 H1          58.5780   -19.0330    22.2200 hn         1 7QB       0.547000
     66 H2          57.1560   -13.4750    21.8720 ha         1 7QB       0.118000
     67 H3          56.7140   -14.6790    19.7400 ha         1 7QB       0.111000
     68 H4          57.0780   -17.0870    19.5870 ha         1 7QB       0.134000
     69 H5          50.4710   -18.0600    21.6530 ha         1 7QB       0.120000
     70 H6          52.7920   -15.6230    18.9770 ha         1 7QB       0.121000
     71 H7          55.4060   -16.6720    16.7990 h1         1 7QB       0.042367
     72 H8          53.7350   -16.0930    16.9270 h1         1 7QB       0.042367
     73 H9          54.9260   -15.6680    18.1770 h1         1 7QB       0.042367
     74 H12         46.2670   -10.8200    18.7560 h1         1 7QB       0.067700
     75 H13         43.9840    -9.3180    18.0360 h1         1 7QB       0.066200
     76 H14         45.4780    -8.9720    18.9160 h1         1 7QB       0.066200
     77 H15         41.9990    -7.8390    20.9720 hc         1 7QB       0.064700
     78 H16         41.7430    -8.6670    19.4370 hc         1 7QB       0.064700
     79 H17         57.9410   -14.7290    23.8220 ha         1 7QB       0.111000
     80 H18         57.2770   -16.2000    25.2820 hn         1 7QB       0.318500
     81 H19         57.9940   -16.9290    27.3050 h1         1 7QB       0.042700
     82 H20         58.0120   -18.5460    26.5950 h1         1 7QB       0.042700
     83 H21         59.4740   -17.5510    26.5730 h1         1 7QB       0.042700
     84 H22         57.3150   -22.6330    19.3320 h4         1 7QB       0.030100
     85 H23         55.3780   -18.4260    20.8060 ha         1 7QB       0.139000
     86 H24         53.3920   -20.8440    18.9210 hn         1 7QB       0.512000
     87 H25         51.8750   -19.9650    21.0990 ha         1 7QB       0.122000
     88 H26         49.4750   -14.9900    19.1860 h1         1 7QB       0.047200
     89 H27         51.1460   -14.5030    18.9170 h1         1 7QB       0.047200
     90 H28         51.0350   -12.8000    20.6360 h1         1 7QB       0.046200
     91 H29         49.7220   -12.5990    19.4710 h1         1 7QB       0.046200
     92 H31         50.4810   -13.8580    22.8560 h1         1 7QB       0.046200
     93 H32         48.8000   -14.3310    23.1310 h1         1 7QB       0.046200
     94 H33         48.9190   -16.0900    21.4810 h1         1 7QB       0.047200
     95 H34         50.2690   -16.2210    22.6120 h1         1 7QB       0.047200
     96 H35         47.2360   -13.1500    20.1710 hn         1 7QB       0.346500
     97 H36         47.4930   -13.6140    17.9530 hc         1 7QB       0.040700
     98 H37         46.4270   -13.7120    16.5610 hc         1 7QB       0.040700
     99 H38         47.1770   -12.1740    16.9830 hc         1 7QB       0.040700
    100 H39         44.0070   -13.8650    19.3960 hc         1 7QB       0.040700
    101 H40         44.7550   -14.7520    18.0750 hc         1 7QB       0.040700
    102 H41         45.6440   -14.5010    19.5650 hc         1 7QB       0.040700
    103 H42         43.5180   -11.8750    17.8820 hc         1 7QB       0.040700
    104 H43         44.7970   -11.2320    16.8450 hc         1 7QB       0.040700
    105 H44         44.1580   -12.8480    16.5640 hc         1 7QB       0.040700
    106 H45         43.3060    -9.6540    21.8580 h1         1 7QB       0.073700
    107 H46         43.5090    -7.1410    18.8540 h1         1 7QB       0.050700
    108 H47         44.1440    -6.6600    21.0740 ho         1 7QB       0.441000
    109 H48         41.4920   -10.4620    22.7570 hn         1 7QB       0.315500
    110 H49         40.1930   -12.7740    21.6100 h1         1 7QB       0.077700
    111 H50         38.7970   -12.6580    23.6460 hc         1 7QB       0.046033
    112 H51         40.5100   -12.5230    24.0500 hc         1 7QB       0.046033
    113 H52         39.4780   -11.0830    24.0530 hc         1 7QB       0.046033
    114 H53         39.2540    -9.1640    21.9980 ha         1 7QB       0.113000
    115 H54         37.2970    -8.1750    20.9250 ha         1 7QB       0.117500
    116 H55         36.1650   -12.0320    19.4340 ha         1 7QB       0.117500
    117 H56         38.1100   -13.0240    20.5470 ha         1 7QB       0.113000
    118 H57         32.5690   -10.8590    20.5010 hc         1 7QB       0.051367
    119 H58         33.4510   -11.9090    19.4020 hc         1 7QB       0.051367
    120 H59         34.1950   -11.4070    20.9150 hc         1 7QB       0.051367
    121 H60         33.3980    -7.2870    17.5940 h5         1 7QB       0.052100
    122 C49         59.1570   -21.1740    20.6680 c3         1 7QB       0.374300
    123 C20         48.7090   -12.0480    21.8260 c3         1 7QB       0.080800
    124 F2          59.4240   -21.2420    21.9890 f          1 7QB      -0.117333
    125 F           59.4940   -22.3640    20.1600 f          1 7QB      -0.117333
    126 F1          60.0250   -20.2800    20.1650 f          1 7QB      -0.117333
    127 O5          41.5660   -11.4560    19.7780 o          1 7QB      -0.595100
    128 H10         49.5510   -11.3540    21.9650 h1         1 7QB       0.066700
    129 H11         48.2520   -12.1720    22.8130 h1         1 7QB       0.066700
@<TRIPOS>BOND
     1     1     6 1   
     2     1     7 1   
     3     1    65 1   
     4     2    31 1   
     5     2    33 1   
     6     2    37 1   
     7     3     4 ar  
     8     3    18 ar  
     9     3    66 1   
    10     4     5 ar  
    11     4    67 1   
    12     5     6 ar  
    13     5    68 1   
    14     6    19 ar  
    15     7    17 ar  
    16     7    26 ar  
    17     8    25 ar  
    18     8    26 ar  
    19     8    27 1   
    20     9    31 ar  
    21     9    32 ar  
    22     9    69 1   
    23    10    29 ar  
    24    10    31 ar  
    25    10    70 1   
    26    11    30 1   
    27    11    71 1   
    28    11    72 1   
    29    11    73 1   
    30    12    38 2   
    31    12    39 1   
    32    12   123 1   
    33    13    39 1   
    34    13    40 1   
    35    13    44 1   
    36    13    74 1   
    37    14    46 1   
    38    14    48 1   
    39    14    75 1   
    40    14    76 1   
    41    15    47 1   
    42    15    48 1   
    43    15    77 1   
    44    15    78 1   
    45    16    47 1   
    46    16    50 1   
    47    16   127 2   
    48    17    24 ar  
    49    17   122 1   
    50    18    19 ar  
    51    18    79 1   
    52    19    20 1   
    53    20    21 2   
    54    20    22 1   
    55    22    23 1   
    56    22    80 1   
    57    23    81 1   
    58    23    82 1   
    59    23    83 1   
    60    24    25 ar  
    61    24    84 1   
    62    26    85 1   
    63    27    28 1   
    64    27    86 1   
    65    28    29 ar  
    66    28    32 ar  
    67    29    30 1   
    68    32    87 1   
    69    33    34 1   
    70    33    88 1   
    71    33    89 1   
    72    34    35 1   
    73    34    90 1   
    74    34    91 1   
    75    35    36 1   
    76    35   123 1   
    77    36    37 1   
    78    36    92 1   
    79    36    93 1   
    80    37    94 1   
    81    37    95 1   
    82    39    96 1   
    83    40    41 1   
    84    40    42 1   
    85    40    43 1   
    86    41    97 1   
    87    41    98 1   
    88    41    99 1   
    89    42   100 1   
    90    42   101 1   
    91    42   102 1   
    92    43   103 1   
    93    43   104 1   
    94    43   105 1   
    95    44    45 2   
    96    44    46 1   
    97    46    47 1   
    98    47   106 1   
    99    48    49 1   
   100    48   107 1   
   101    49   108 1   
   102    50    51 1   
   103    50   109 1   
   104    51    52 1   
   105    51    53 1   
   106    51   110 1   
   107    52   111 1   
   108    52   112 1   
   109    52   113 1   
   110    53    54 ar  
   111    53    58 ar  
   112    54    55 ar  
   113    54   114 1   
   114    55    56 ar  
   115    55   115 1   
   116    56    57 ar  
   117    56    59 1   
   118    57    58 ar  
   119    57   116 1   
   120    58   117 1   
   121    59    60 2   
   122    59    64 1   
   123    60    61 1   
   124    60    62 1   
   125    61   118 1   
   126    61   119 1   
   127    61   120 1   
   128    62    63 2   
   129    63    64 1   
   130    63   121 1   
   131   122   124 1   
   132   122   125 1   
   133   122   126 1   
   134   123   128 1   
   135   123   129 1   
@<TRIPOS>SUBSTRUCTURE
     1 7QB         1 TEMP              0 ****  ****    0 ROOT
