@<TRIPOS>MOLECULE
7QB
  129   135     1     0     0
SMALL
No Charge or Current Charge


@<TRIPOS>ATOM
      1 N1          57.1250   -19.9680    21.7420 nu         1 7QB      -0.993000
      2 N3          50.5430   -14.4270    21.5240 nh         1 7QB      -0.801400
      3 C4          58.6970   -16.1620    20.8790 ca         1 7QB      -0.148000
      4 C5          57.6070   -16.6560    20.1540 ca         1 7QB      -0.064000
      5 C6          57.1010   -17.9290    20.4500 ca         1 7QB      -0.157000
      6 C7          57.6650   -18.7140    21.4720 ca         1 7QB       0.362000
      7 C8          55.8900   -20.5600    21.5350 ca         1 7QB       0.440000
      8 C10         53.5250   -20.4180    21.3460 ca         1 7QB       0.678900
      9 C13         50.4230   -16.7470    22.3140 ca         1 7QB      -0.209000
     10 C15         51.9990   -16.1280    20.5840 ca         1 7QB      -0.250000
     11 C17         53.9890   -16.9120    18.6380 c3         1 7QB       0.144900
     12 C21         48.6180    -9.3970    20.5630 c          1 7QB       0.593100
     13 C22         46.4830    -9.5910    19.1800 c3         1 7QB       0.059700
     14 C24         44.1890    -7.5610    19.0370 c5         1 7QB       0.113000
     15 C26         41.8220    -8.1740    19.0920 c5         1 7QB      -0.128400
     16 C28         42.0160   -10.7160    19.1460 c          1 7QB       0.606100
     17 C48         55.7720   -21.9470    21.3970 ca         1 7QB      -0.375300
     18 C3          59.2880   -16.9430    21.8840 ca         1 7QB      -0.062000
     19 C2          58.7880   -18.2350    22.1940 ca         1 7QB      -0.206600
     20 C1          59.4530   -19.0760    23.2650 c          1 7QB       0.615700
     21 O           59.2710   -20.2820    23.3790 o          1 7QB      -0.620100
     22 N           60.3240   -18.4210    24.1070 ns         1 7QB      -0.495900
     23 C           61.0760   -19.0670    25.1850 c3         1 7QB       0.093300
     24 C47         54.4830   -22.4790    21.2400 ca         1 7QB       0.461900
     25 N9          53.3690   -21.7250    21.2230 nb         1 7QB      -0.778000
     26 C9          54.7400   -19.7830    21.5280 ca         1 7QB      -0.303000
     27 N2          52.3160   -19.7970    21.3800 nu         1 7QB      -0.939900
     28 C11         51.9080   -18.4490    21.3800 ca         1 7QB       0.195000
     29 C16         52.4660   -17.4610    20.5160 ca         1 7QB       0.175100
     30 O1          53.4320   -17.8330    19.5920 os         1 7QB      -0.325100
     31 C14         50.9850   -15.7660    21.4810 ca         1 7QB       0.351000
     32 C12         50.8760   -18.0750    22.2590 ca         1 7QB      -0.049000
     33 C46         50.0150   -13.7700    20.2860 c6         1 7QB       0.203800
     34 C45         50.0900   -12.2100    20.3570 c6         1 7QB       0.159300
     35 N4          49.4360   -11.6520    21.5830 n3         1 7QB      -0.739600
     36 C19         50.0440   -12.2780    22.7980 c6         1 7QB       0.159300
     37 C18         49.9710   -13.8400    22.7780 c6         1 7QB       0.203800
     38 O2          48.9340    -8.3040    20.1080 o          1 7QB      -0.610100
     39 N5          47.4800   -10.0630    20.1700 ns         1 7QB      -0.482900
     40 C41         46.7300   -10.2170    17.7510 c3         1 7QB      -0.045000
     41 C44         48.1490    -9.8420    17.2360 c3         1 7QB      -0.090100
     42 C43         46.6140   -11.7680    17.7960 c3         1 7QB      -0.090100
     43 C42         45.7090    -9.6800    16.7110 c3         1 7QB      -0.090100
     44 C23         45.0500    -9.8700    19.7590 c          1 7QB       0.608100
     45 O3          44.8420   -10.8380    20.4870 o          1 7QB      -0.610100
     46 N6          43.9770    -9.0160    19.4150 n          1 7QB      -0.384800
     47 C27         42.5430    -9.3850    19.7690 c5         1 7QB       0.035700
     48 C25         42.7770    -6.9670    19.3580 c5         1 7QB       0.151300
     49 O4          42.6800    -6.5220    20.7140 oh         1 7QB      -0.641000
     50 N7          40.8770   -11.1080    19.8170 ns         1 7QB      -0.500900
     51 C29         40.1120   -12.3160    19.5210 c3         1 7QB       0.163000
     52 C30         40.8070   -13.5700    20.0880 c3         1 7QB      -0.103100
     53 C31         38.6790   -12.1630    20.0260 ca         1 7QB      -0.087300
     54 C36         38.3990   -12.0950    21.4070 ca         1 7QB      -0.097500
     55 C35         37.0760   -11.9460    21.8580 ca         1 7QB      -0.095500
     56 C34         36.0130   -11.8680    20.9410 ca         1 7QB      -0.008000
     57 C33         36.2930   -11.9180    19.5620 ca         1 7QB      -0.095500
     58 C32         37.6150   -12.0660    19.1080 ca         1 7QB      -0.097500
     59 C37         34.6450   -11.7020    21.4270 cc         1 7QB      -0.181000
     60 C39         33.6150   -12.5440    21.0530 cd         1 7QB       0.300300
     61 C40         33.6900   -13.7230    20.1190 c3         1 7QB      -0.121400
     62 N8          32.3990   -12.2370    21.6480 nd         1 7QB      -0.636000
     63 C38         32.5430   -11.1960    22.4640 cc         1 7QB       0.413300
     64 S           34.1470   -10.5190    22.5970 ss         1 7QB      -0.034400
     65 H1          57.7740   -20.5490    22.2860 hn         1 7QB       0.547000
     66 H2          59.0980   -15.1760    20.6510 ha         1 7QB       0.118000
     67 H3          57.1600   -16.0580    19.3620 ha         1 7QB       0.111000
     68 H4          56.2710   -18.3140    19.8670 ha         1 7QB       0.134000
     69 H5          49.6240   -16.4920    23.0040 ha         1 7QB       0.120000
     70 H6          52.4200   -15.3560    19.9500 ha         1 7QB       0.121000
     71 H7          54.7190   -17.4230    17.9980 h1         1 7QB       0.042367
     72 H8          53.2040   -16.4970    17.9920 h1         1 7QB       0.042367
     73 H9          54.5030   -16.0860    19.1460 h1         1 7QB       0.042367
     74 H12         46.5940    -8.5040    19.0940 h1         1 7QB       0.067700
     75 H13         44.4240    -7.4530    17.9710 h1         1 7QB       0.066200
     76 H14         44.9770    -7.0770    19.6280 h1         1 7QB       0.066200
     77 H15         40.8130    -8.0130    19.4890 hc         1 7QB       0.064700
     78 H16         41.7130    -8.3360    18.0130 hc         1 7QB       0.064700
     79 H17         60.1520   -16.5310    22.4000 ha         1 7QB       0.111000
     80 H18         60.4230   -17.4220    23.9780 hn         1 7QB       0.318500
     81 H19         61.6910   -18.3200    25.7030 h1         1 7QB       0.042700
     82 H20         60.3790   -19.5210    25.9010 h1         1 7QB       0.042700
     83 H21         61.7280   -19.8450    24.7660 h1         1 7QB       0.042700
     84 H22         54.3200   -23.5510    21.1300 h4         1 7QB       0.030100
     85 H23         54.7820   -18.7160    21.6940 ha         1 7QB       0.139000
     86 H24         51.5870   -20.4870    21.5350 hn         1 7QB       0.512000
     87 H25         50.4290   -18.8180    22.9150 ha         1 7QB       0.122000
     88 H26         48.9660   -14.0630    20.1340 h1         1 7QB       0.047200
     89 H27         50.5730   -14.1010    19.3980 h1         1 7QB       0.047200
     90 H28         51.1490   -11.9130    20.3270 h1         1 7QB       0.046200
     91 H29         49.6220   -11.8040    19.4500 h1         1 7QB       0.046200
     92 H31         51.0990   -11.9810    22.8850 h1         1 7QB       0.046200
     93 H32         49.5360   -11.9190    23.7060 h1         1 7QB       0.046200
     94 H33         48.9190   -14.1410    22.8830 h1         1 7QB       0.047200
     95 H34         50.5110   -14.2210    23.6570 h1         1 7QB       0.047200
     96 H35         47.3330   -10.9620    20.6190 hn         1 7QB       0.346500
     97 H36         48.9360   -10.2750    17.8620 hc         1 7QB       0.040700
     98 H37         48.3070   -10.2110    16.2150 hc         1 7QB       0.040700
     99 H38         48.2850    -8.7540    17.2230 hc         1 7QB       0.040700
    100 H39         45.6070   -12.0830    18.0970 hc         1 7QB       0.040700
    101 H40         46.8140   -12.2030    16.8100 hc         1 7QB       0.040700
    102 H41         47.3310   -12.2040    18.5010 hc         1 7QB       0.040700
    103 H42         44.6790    -9.9400    16.9800 hc         1 7QB       0.040700
    104 H43         45.7830    -8.5910    16.6150 hc         1 7QB       0.040700
    105 H44         45.9010   -10.1090    15.7200 hc         1 7QB       0.040700
    106 H45         42.4030    -9.3970    20.8580 h1         1 7QB       0.073700
    107 H46         42.5520    -6.1300    18.6820 h1         1 7QB       0.050700
    108 H47         41.7870    -6.1260    20.8220 ho         1 7QB       0.441000
    109 H48         40.5480   -10.5060    20.5610 hn         1 7QB       0.315500
    110 H49         40.0770   -12.4280    18.4280 h1         1 7QB       0.077700
    111 H50         40.2110   -14.4650    19.8750 hc         1 7QB       0.046033
    112 H51         41.7950   -13.7050    19.6330 hc         1 7QB       0.046033
    113 H52         40.9400   -13.4950    21.1740 hc         1 7QB       0.046033
    114 H53         39.2050   -12.1530    22.1340 ha         1 7QB       0.113000
    115 H54         36.8770   -11.8970    22.9260 ha         1 7QB       0.117500
    116 H55         35.4870   -11.8300    18.8380 ha         1 7QB       0.117500
    117 H56         37.8100   -12.1020    18.0380 ha         1 7QB       0.113000
    118 H57         32.8880   -14.4420    20.3210 hc         1 7QB       0.051367
    119 H58         33.5940   -13.4010    19.0760 hc         1 7QB       0.051367
    120 H59         34.6420   -14.2540    20.2260 hc         1 7QB       0.051367
    121 H60         31.7420   -10.7610    23.0480 h5         1 7QB       0.052100
    122 C49         56.9820   -22.8760    21.4070 c3         1 7QB       0.374300
    123 C20         49.4540   -10.1510    21.6330 c3         1 7QB       0.080800
    124 F2          57.6430   -22.8170    22.5830 f          1 7QB      -0.117333
    125 F           56.6530   -24.1740    21.2180 f          1 7QB      -0.117333
    126 F1          57.8670   -22.5620    20.4340 f          1 7QB      -0.117333
    127 O5          42.4980   -11.3490    18.2150 o          1 7QB      -0.595100
    128 H10         50.4840    -9.7780    21.5640 h1         1 7QB       0.066700
    129 H11         49.0540    -9.8170    22.6000 h1         1 7QB       0.066700
@<TRIPOS>BOND
     1     1     6 1   
     2     1     7 1   
     3     1    65 1   
     4     2    31 1   
     5     2    33 1   
     6     2    37 1   
     7     3     4 ar  
     8     3    18 ar  
     9     3    66 1   
    10     4     5 ar  
    11     4    67 1   
    12     5     6 ar  
    13     5    68 1   
    14     6    19 ar  
    15     7    17 ar  
    16     7    26 ar  
    17     8    25 ar  
    18     8    26 ar  
    19     8    27 1   
    20     9    31 ar  
    21     9    32 ar  
    22     9    69 1   
    23    10    29 ar  
    24    10    31 ar  
    25    10    70 1   
    26    11    30 1   
    27    11    71 1   
    28    11    72 1   
    29    11    73 1   
    30    12    38 2   
    31    12    39 1   
    32    12   123 1   
    33    13    39 1   
    34    13    40 1   
    35    13    44 1   
    36    13    74 1   
    37    14    46 1   
    38    14    48 1   
    39    14    75 1   
    40    14    76 1   
    41    15    47 1   
    42    15    48 1   
    43    15    77 1   
    44    15    78 1   
    45    16    47 1   
    46    16    50 1   
    47    16   127 2   
    48    17    24 ar  
    49    17   122 1   
    50    18    19 ar  
    51    18    79 1   
    52    19    20 1   
    53    20    21 2   
    54    20    22 1   
    55    22    23 1   
    56    22    80 1   
    57    23    81 1   
    58    23    82 1   
    59    23    83 1   
    60    24    25 ar  
    61    24    84 1   
    62    26    85 1   
    63    27    28 1   
    64    27    86 1   
    65    28    29 ar  
    66    28    32 ar  
    67    29    30 1   
    68    32    87 1   
    69    33    34 1   
    70    33    88 1   
    71    33    89 1   
    72    34    35 1   
    73    34    90 1   
    74    34    91 1   
    75    35    36 1   
    76    35   123 1   
    77    36    37 1   
    78    36    92 1   
    79    36    93 1   
    80    37    94 1   
    81    37    95 1   
    82    39    96 1   
    83    40    41 1   
    84    40    42 1   
    85    40    43 1   
    86    41    97 1   
    87    41    98 1   
    88    41    99 1   
    89    42   100 1   
    90    42   101 1   
    91    42   102 1   
    92    43   103 1   
    93    43   104 1   
    94    43   105 1   
    95    44    45 2   
    96    44    46 1   
    97    46    47 1   
    98    47   106 1   
    99    48    49 1   
   100    48   107 1   
   101    49   108 1   
   102    50    51 1   
   103    50   109 1   
   104    51    52 1   
   105    51    53 1   
   106    51   110 1   
   107    52   111 1   
   108    52   112 1   
   109    52   113 1   
   110    53    54 ar  
   111    53    58 ar  
   112    54    55 ar  
   113    54   114 1   
   114    55    56 ar  
   115    55   115 1   
   116    56    57 ar  
   117    56    59 1   
   118    57    58 ar  
   119    57   116 1   
   120    58   117 1   
   121    59    60 2   
   122    59    64 1   
   123    60    61 1   
   124    60    62 1   
   125    61   118 1   
   126    61   119 1   
   127    61   120 1   
   128    62    63 2   
   129    63    64 1   
   130    63   121 1   
   131   122   124 1   
   132   122   125 1   
   133   122   126 1   
   134   123   128 1   
   135   123   129 1   
@<TRIPOS>SUBSTRUCTURE
     1 7QB         1 TEMP              0 ****  ****    0 ROOT
