@<TRIPOS>MOLECULE
7QC
   46    48     1     0     0
SMALL
No Charge or Current Charge


@<TRIPOS>ATOM
      1 C10        -26.5890   -18.5500    48.2160 ca         1 7QC      -0.224000
      2 C15        -23.7900   -18.5640    48.4490 ca         1 7QC       0.185600
      3 C17        -21.5440   -19.1930    47.6030 c3         1 7QC       0.148900
      4 C20        -26.2710   -17.6950    53.4770 ca         1 7QC      -0.107000
      5 C21        -27.2890   -18.5080    54.0070 ca         1 7QC      -0.072000
      6 C22        -27.3940   -19.8560    53.6140 ca         1 7QC      -0.029000
      7 C26        -25.4560   -19.5680    52.1630 ca         1 7QC      -0.107000
      8 C01        -23.4040   -16.2430    54.0990 c3         1 7QC       0.061900
      9 C03        -22.5790   -16.0070    51.7090 cc         1 7QC       0.399400
     10 C05        -23.9040   -17.3680    50.6580 cd         1 7QC       0.359500
     11 C06        -24.5670   -17.9840    49.4820 ca         1 7QC      -0.182500
     12 C07        -25.9770   -17.9560    49.3390 ca         1 7QC       0.185600
     13 C09        -28.1680   -17.3090    50.2990 c3         1 7QC       0.148900
     14 C11        -25.8180   -19.1540    47.2120 ca         1 7QC      -0.010300
     15 C12        -26.4900   -19.7950    45.9990 c3         1 7QC       0.193100
     16 C14        -24.4200   -19.1490    47.3300 ca         1 7QC      -0.224000
     17 C18        -24.3000   -17.3620    51.9830 cc         1 7QC      -0.156000
     18 C19        -25.3500   -18.2160    52.5470 ca         1 7QC       0.037000
     19 C23        -28.4360   -20.6870    54.1520 cg         1 7QC       0.327000
     20 C25        -26.4720   -20.3840    52.6910 ca         1 7QC      -0.072000
     21 N02        -23.4440   -16.5160    52.6540 na         1 7QC      -0.168500
     22 N04        -22.8470   -16.4860    50.5020 nd         1 7QC      -0.651000
     23 N13        -26.6180   -18.8510    44.8690 n8         1 7QC      -1.003200
     24 N24        -29.2890   -21.3560    54.5850 n1         1 7QC      -0.458000
     25 O08        -26.7310   -17.2660    50.2690 os         1 7QC      -0.336600
     26 O16        -22.4140   -18.6170    48.5940 os         1 7QC      -0.336600
     27 H1         -27.6680   -18.5340    48.0930 ha         1 7QC       0.127500
     28 H2         -20.4980   -19.1110    47.9230 h1         1 7QC       0.041867
     29 H3         -21.7710   -20.2560    47.4550 h1         1 7QC       0.041867
     30 H4         -21.6480   -18.6720    46.6430 h1         1 7QC       0.041867
     31 H5         -26.2140   -16.6520    53.7730 ha         1 7QC       0.125500
     32 H6         -27.9970   -18.0860    54.7180 ha         1 7QC       0.124500
     33 H7         -24.7470   -19.9910    51.4550 ha         1 7QC       0.125500
     34 H8         -23.6470   -17.1550    54.6570 h1         1 7QC       0.053700
     35 H9         -22.4000   -15.9060    54.3860 h1         1 7QC       0.053700
     36 H10        -24.1300   -15.4590    54.3450 h1         1 7QC       0.053700
     37 H11        -21.7960   -15.3010    51.9610 h5         1 7QC       0.054100
     38 H12        -28.5450   -16.7360    51.1550 h1         1 7QC       0.041867
     39 H13        -28.5930   -16.8740    49.3860 h1         1 7QC       0.041867
     40 H14        -28.5230   -18.3430    50.4000 h1         1 7QC       0.041867
     41 H15        -27.4920   -20.1500    46.2780 h1         1 7QC       0.037200
     42 H16        -25.9050   -20.6650    45.6690 h1         1 7QC       0.037200
     43 H17        -23.8410   -19.6150    46.5390 ha         1 7QC       0.127500
     44 H18        -26.5400   -21.4250    52.3810 ha         1 7QC       0.124500
     45 H19        -27.1610   -19.2990    44.1210 hn         1 7QC       0.398000
     46 H20        -27.2100   -18.0660    45.1650 hn         1 7QC       0.398000
@<TRIPOS>BOND
     1     1    12 ar  
     2     1    14 ar  
     3     1    27 1   
     4     2    11 ar  
     5     2    16 ar  
     6     2    26 1   
     7     3    26 1   
     8     3    28 1   
     9     3    29 1   
    10     3    30 1   
    11     4     5 ar  
    12     4    18 ar  
    13     4    31 1   
    14     5     6 ar  
    15     5    32 1   
    16     6    19 1   
    17     6    20 ar  
    18     7    18 ar  
    19     7    20 ar  
    20     7    33 1   
    21     8    21 1   
    22     8    34 1   
    23     8    35 1   
    24     8    36 1   
    25     9    21 1   
    26     9    22 2   
    27     9    37 1   
    28    10    11 1   
    29    10    17 2   
    30    10    22 1   
    31    11    12 ar  
    32    12    25 1   
    33    13    25 1   
    34    13    38 1   
    35    13    39 1   
    36    13    40 1   
    37    14    15 1   
    38    14    16 ar  
    39    15    23 1   
    40    15    41 1   
    41    15    42 1   
    42    16    43 1   
    43    17    18 1   
    44    17    21 1   
    45    19    24 3   
    46    20    44 1   
    47    23    45 1   
    48    23    46 1   
@<TRIPOS>SUBSTRUCTURE
     1 7QC         1 TEMP              0 ****  ****    0 ROOT
