@<TRIPOS>MOLECULE
7QC
   46    48     1     0     0
SMALL
abcg2


@<TRIPOS>ATOM
      1 C10        -26.7700   -18.1840    48.1500 ca         1 7QC      -0.224000
      2 C15        -24.0300   -18.4670    48.5330 ca         1 7QC       0.185600
      3 C17        -21.9050   -19.4030    47.9450 c3         1 7QC       0.148900
      4 C20        -26.0390   -18.0090    53.6380 ca         1 7QC      -0.107000
      5 C21        -26.9300   -18.9350    54.1500 ca         1 7QC      -0.072000
      6 C22        -27.0490   -20.1930    53.5490 ca         1 7QC      -0.029000
      7 C26        -25.3670   -19.5830    51.9400 ca         1 7QC      -0.107000
      8 C01        -23.3270   -16.3790    54.0790 c3         1 7QC       0.061900
      9 C03        -22.8800   -15.6970    51.7240 cc         1 7QC       0.399400
     10 C05        -24.1140   -17.0500    50.5970 cd         1 7QC       0.359500
     11 C06        -24.7630   -17.6790    49.4340 ca         1 7QC      -0.182500
     12 C07        -26.1440   -17.5490    49.2240 ca         1 7QC       0.185600
     13 C09        -28.2310   -16.6940    50.0320 c3         1 7QC       0.148900
     14 C11        -26.0220   -18.9610    47.2700 ca         1 7QC      -0.010300
     15 C12        -26.7220   -19.6850    46.1420 c3         1 7QC       0.193100
     16 C14        -24.6500   -19.1000    47.4570 ca         1 7QC      -0.224000
     17 C18        -24.3350   -17.3380    51.9330 cc         1 7QC      -0.156000
     18 C19        -25.2420   -18.3140    52.5260 ca         1 7QC       0.037000
     19 C23        -27.9710   -21.1480    54.0680 cg         1 7QC       0.327000
     20 C25        -26.2610   -20.5130    52.4360 ca         1 7QC      -0.072000
     21 N02        -23.5350   -16.4530    52.6390 na         1 7QC      -0.168500
     22 N04        -23.2090   -16.0190    50.4870 nd         1 7QC      -0.651000
     23 N13        -25.9360   -19.6850    44.9020 n8         1 7QC      -1.003200
     24 N24        -28.7170   -21.9220    54.4880 n1         1 7QC      -0.458000
     25 O08        -26.8100   -16.7720    50.1180 os         1 7QC      -0.336600
     26 O16        -22.7030   -18.5930    48.8050 os         1 7QC      -0.336600
     27 H1         -27.8310   -18.0730    47.9860 ha         1 7QC       0.127500
     28 H2         -20.8970   -19.3600    48.3500 h1         1 7QC       0.041867
     29 H3         -22.2550   -20.4380    47.9410 h1         1 7QC       0.041867
     30 H4         -21.9070   -19.0150    46.9240 h1         1 7QC       0.041867
     31 H5         -25.9860   -17.0310    54.0930 ha         1 7QC       0.125500
     32 H6         -27.5450   -18.6860    55.0040 ha         1 7QC       0.124500
     33 H7         -24.7500   -19.8400    51.0910 ha         1 7QC       0.125500
     34 H8         -23.2790   -17.3820    54.4980 h1         1 7QC       0.053700
     35 H9         -22.3830   -15.8710    54.2610 h1         1 7QC       0.053700
     36 H10        -24.1300   -15.8240    54.5630 h1         1 7QC       0.053700
     37 H11        -22.1680   -14.9420    52.0170 h5         1 7QC       0.054100
     38 H12        -28.5430   -16.0710    50.8660 h1         1 7QC       0.041867
     39 H13        -28.5470   -16.2340    49.0930 h1         1 7QC       0.041867
     40 H14        -28.6830   -17.6840    50.1230 h1         1 7QC       0.041867
     41 H15        -27.7210   -19.2510    46.0200 h1         1 7QC       0.037200
     42 H16        -26.8690   -20.7300    46.4350 h1         1 7QC       0.037200
     43 H17        -24.0840   -19.7030    46.7660 ha         1 7QC       0.127500
     44 H18        -26.3460   -21.4880    51.9760 ha         1 7QC       0.124500
     45 H19        -26.4120   -20.2450    44.2020 hn         1 7QC       0.398000
     46 H20        -25.8870   -18.7420    44.5290 hn         1 7QC       0.398000
@<TRIPOS>BOND
     1     1    12 ar  
     2     1    14 ar  
     3     1    27 1   
     4     2    11 ar  
     5     2    16 ar  
     6     2    26 1   
     7     3    26 1   
     8     3    28 1   
     9     3    29 1   
    10     3    30 1   
    11     4     5 ar  
    12     4    18 ar  
    13     4    31 1   
    14     5     6 ar  
    15     5    32 1   
    16     6    19 1   
    17     6    20 ar  
    18     7    18 ar  
    19     7    20 ar  
    20     7    33 1   
    21     8    21 1   
    22     8    34 1   
    23     8    35 1   
    24     8    36 1   
    25     9    21 1   
    26     9    22 2   
    27     9    37 1   
    28    10    11 1   
    29    10    17 2   
    30    10    22 1   
    31    11    12 ar  
    32    12    25 1   
    33    13    25 1   
    34    13    38 1   
    35    13    39 1   
    36    13    40 1   
    37    14    15 1   
    38    14    16 ar  
    39    15    23 1   
    40    15    41 1   
    41    15    42 1   
    42    16    43 1   
    43    17    18 1   
    44    17    21 1   
    45    19    24 3   
    46    20    44 1   
    47    23    45 1   
    48    23    46 1   
@<TRIPOS>SUBSTRUCTURE
     1 7QC         1 TEMP              0 ****  ****    0 ROOT
