@<TRIPOS>MOLECULE
7QD
   20    19     1     0     0
SMALL
bcc


@<TRIPOS>ATOM
      1 O01          1.9870     1.0500     0.6470 o          1 7QD      -0.541100
      2 C02          2.0440    -0.0560     0.1590 c          1 7QD       0.457100
      3 C03          3.4170    -0.7330    -0.0660 c          1 7QD       0.841600
      4 O04          3.4920    -1.4700    -1.0650 o          1 7QD      -0.862800
      5 O05          4.2990    -0.4630     0.7630 o          1 7QD      -0.862800
      6 C06          0.8270    -0.8120    -0.3010 c3         1 7QD      -0.139400
      7 C07         -0.5000    -0.2560     0.1930 c3         1 7QD       0.061800
      8 O08         -0.5120    -0.3490     1.5950 oh         1 7QD      -0.661800
      9 C09         -0.7340     1.1900    -0.3200 c          1 7QD       0.944600
     10 O10         -1.2620     2.0030     0.4600 o          1 7QD      -0.869800
     11 O11         -0.4210     1.4050    -1.5120 o          1 7QD      -0.869800
     12 C12         -1.6450    -1.1190    -0.3840 c3         1 7QD      -0.213400
     13 C13         -3.0210    -0.7240     0.1680 c          1 7QD       0.940600
     14 O14         -3.1080    -0.6470     1.4250 o          1 7QD      -0.876800
     15 O15         -3.9510    -0.5250    -0.6280 o          1 7QD      -0.876800
     16 H062         0.8490    -0.8380    -1.3920 hc         1 7QD       0.035200
     17 H061         0.9380    -1.8590     0.0060 hc         1 7QD       0.035200
     18 H081        -1.4690    -0.3750     1.8160 ho         1 7QD       0.447000
     19 H121        -1.6350    -1.0590    -1.4730 hc         1 7QD       0.005700
     20 H122        -1.4560    -2.1660    -0.1190 hc         1 7QD       0.005700
@<TRIPOS>BOND
     1     1     2 2   
     2     2     3 1   
     3     2     6 1   
     4     3     4 1   
     5     3     5 1   
     6     6     7 1   
     7     6    16 1   
     8     6    17 1   
     9     7     8 1   
    10     7     9 1   
    11     7    12 1   
    12     8    18 1   
    13     9    10 1   
    14     9    11 1   
    15    12    13 1   
    16    12    19 1   
    17    12    20 1   
    18    13    14 1   
    19    13    15 1   
@<TRIPOS>SUBSTRUCTURE
     1 7QD         1 TEMP              0 ****  ****    0 ROOT
