@<TRIPOS>MOLECULE
7QD
   20    19     1     0     0
SMALL
No Charge or Current Charge


@<TRIPOS>ATOM
      1 O01          2.3570     1.2330    -0.6250 o          1 7QD      -0.541100
      2 C02          2.0860     0.0690    -0.3140 c          1 7QD       0.457100
      3 C03          3.0530    -0.8110     0.6510 c          1 7QD       0.631000
      4 O04          3.2930    -1.9790     0.3480 o          1 7QD      -0.757500
      5 O05          3.6010    -0.2580     1.6040 o          1 7QD      -0.757500
      6 C06          0.8210    -0.6200    -0.8680 c3         1 7QD      -0.139400
      7 C07         -0.4470    -0.2630    -0.0360 c3         1 7QD       0.085000
      8 O08         -0.1660    -0.6200     1.3430 oh         1 7QD      -0.724000
      9 C09         -0.8440     1.2810    -0.2410 c          1 7QD       0.734000
     10 O10         -0.9720     2.0030     0.7430 o          1 7QD      -0.764500
     11 O11         -0.9670     1.7170    -1.3810 o          1 7QD      -0.764500
     12 C12         -1.6400    -1.1720    -0.4550 c3         1 7QD      -0.213400
     13 C13         -2.8630    -0.8710     0.4260 c          1 7QD       0.730000
     14 O14         -2.8460    -1.3040     1.5690 o          1 7QD      -0.771500
     15 O15         -3.7350    -0.1350    -0.0060 o          1 7QD      -0.771500
     16 H062         0.6670    -0.3250    -1.9120 hc         1 7QD       0.035200
     17 H061         0.9580    -1.7060    -0.8120 hc         1 7QD       0.035200
     18 H081        -1.0540    -0.8570     1.7220 ho         1 7QD       0.486000
     19 H121        -1.8580    -0.9840    -1.5140 hc         1 7QD       0.005700
     20 H122        -1.3040    -2.2010    -0.2700 hc         1 7QD       0.005700
@<TRIPOS>BOND
     1     1     2 2   
     2     2     3 1   
     3     2     6 1   
     4     3     4 1   
     5     3     5 1   
     6     6     7 1   
     7     6    16 1   
     8     6    17 1   
     9     7     8 1   
    10     7     9 1   
    11     7    12 1   
    12     8    18 1   
    13     9    10 1   
    14     9    11 1   
    15    12    13 1   
    16    12    19 1   
    17    12    20 1   
    18    13    14 1   
    19    13    15 1   
@<TRIPOS>SUBSTRUCTURE
     1 7QD         1 TEMP              0 ****  ****    0 ROOT
