@<TRIPOS>MOLECULE
7QF
   38    40     1     0     0
SMALL
abcg2


@<TRIPOS>ATOM
      1 C1          16.7650   -22.6040   -26.0240 ca         1 7QF      -0.201000
      2 C14          9.8130   -22.2670   -28.1960 c6         1 7QF       0.126800
      3 C15          8.1240   -23.0570   -29.7140 c6         1 7QF       0.123800
      4 C16          9.1080   -22.4250   -30.6990 c6         1 7QF       0.128600
      5 C13         10.9460   -22.5530   -29.2090 c6         1 7QF       0.172600
      6 C12         12.9200   -23.3960   -27.9250 ca         1 7QF      -0.100000
      7 C11         11.8240   -23.6830   -28.7320 ca         1 7QF      -0.087300
      8 C8          13.4210   -25.7280   -27.7130 ca         1 7QF      -0.101000
      9 C9          12.3290   -26.0250   -28.5100 ca         1 7QF      -0.110000
     10 C10         11.5300   -25.0110   -29.0250 ca         1 7QF      -0.090000
     11 C7          13.7330   -24.4020   -27.4050 cp         1 7QF      -0.020000
     12 C6          16.7970   -25.4950   -23.7100 cg         1 7QF       0.332000
     13 C5          16.4240   -24.6040   -24.7520 ca         1 7QF      -0.115000
     14 C4          15.3050   -24.9040   -25.5340 ca         1 7QF      -0.012000
     15 C3          14.9020   -24.0740   -26.5660 cp         1 7QF      -0.094000
     16 C2          15.6640   -22.9160   -26.7870 ca         1 7QF      -0.028000
     17 N1          17.1170   -26.2120   -22.8650 n1         1 7QF      -0.473000
     18 C           17.1860   -23.4400   -24.9770 ca         1 7QF       0.368000
     19 N           18.2500   -23.1100   -24.2050 nv         1 7QF      -1.093000
     20 O           10.4160   -22.9040   -30.4730 os         1 7QF      -0.452000
     21 N2           8.6840   -23.1530   -28.3670 n7         1 7QF      -0.853400
     22 H1          17.3300   -21.7050   -26.2380 ha         1 7QF       0.117000
     23 H3           9.4730   -21.2340   -28.3050 h1         1 7QF       0.063700
     24 H4           7.2030   -22.4640   -29.7110 h1         1 7QF       0.051700
     25 H5           7.8510   -24.0590   -30.0520 h1         1 7QF       0.051700
     26 H6           9.0740   -21.3300   -30.6320 h1         1 7QF       0.050700
     27 H7           8.8430   -22.6870   -31.7240 h1         1 7QF       0.050700
     28 H8          11.5620   -21.6460   -29.2990 h1         1 7QF       0.051700
     29 H9          13.1340   -22.3590   -27.6890 ha         1 7QF       0.110000
     30 H10         14.0490   -26.5340   -27.3530 ha         1 7QF       0.114000
     31 H11         12.1050   -27.0570   -28.7470 ha         1 7QF       0.114000
     32 H12         10.6950   -25.2610   -29.6660 ha         1 7QF       0.122000
     33 H13         14.7460   -25.8010   -25.3010 ha         1 7QF       0.124000
     34 H14         15.4010   -22.2480   -27.5980 ha         1 7QF       0.116000
     35 H15         18.7030   -23.8150   -23.6470 hn         1 7QF       0.478000
     36 H16         18.8680   -22.3900   -24.5400 hn         1 7QF       0.478000
     37 H17          8.9670   -24.1050   -28.1760 hn         1 7QF       0.420000
     38 H2          10.2030   -22.3500   -27.1800 h1         1 7QF       0.063700
@<TRIPOS>BOND
     1     1    16 ar  
     2     1    18 ar  
     3     1    22 1   
     4     2     5 1   
     5     2    21 1   
     6     2    23 1   
     7     2    38 1   
     8     3     4 1   
     9     3    21 1   
    10     3    24 1   
    11     3    25 1   
    12     4    20 1   
    13     4    26 1   
    14     4    27 1   
    15     5     7 1   
    16     5    20 1   
    17     5    28 1   
    18     6     7 ar  
    19     6    11 ar  
    20     6    29 1   
    21     7    10 ar  
    22     8     9 ar  
    23     8    11 ar  
    24     8    30 1   
    25     9    10 ar  
    26     9    31 1   
    27    10    32 1   
    28    11    15 1   
    29    12    13 1   
    30    12    17 3   
    31    13    14 ar  
    32    13    18 ar  
    33    14    15 ar  
    34    14    33 1   
    35    15    16 ar  
    36    16    34 1   
    37    18    19 1   
    38    19    35 1   
    39    19    36 1   
    40    21    37 1   
@<TRIPOS>SUBSTRUCTURE
     1 7QF         1 TEMP              0 ****  ****    0 ROOT
