@<TRIPOS>MOLECULE
7QF
   38    40     1     0     0
SMALL
No Charge or Current Charge


@<TRIPOS>ATOM
      1 C1          16.7970   -22.4760   -26.1460 ca         1 7QF      -0.201000
      2 C14          9.2130   -23.1270   -28.1270 c6         1 7QF       0.126800
      3 C15          8.1420   -22.1670   -30.1420 c6         1 7QF       0.123800
      4 C16          9.5540   -22.0610   -30.8100 c6         1 7QF       0.128600
      5 C13         10.6090   -22.9570   -28.8300 c6         1 7QF       0.172600
      6 C12         12.7980   -23.5960   -27.6830 ca         1 7QF      -0.100000
      7 C11         11.6370   -24.0000   -28.3720 ca         1 7QF      -0.087300
      8 C8          13.5230   -25.9070   -27.5130 ca         1 7QF      -0.101000
      9 C9          12.3700   -26.3190   -28.2020 ca         1 7QF      -0.110000
     10 C10         11.4300   -25.3690   -28.6310 ca         1 7QF      -0.090000
     11 C7          13.7610   -24.5370   -27.2400 cp         1 7QF      -0.020000
     12 C6          17.1990   -25.3040   -23.7110 cg         1 7QF       0.332000
     13 C5          16.6940   -24.4710   -24.7660 ca         1 7QF      -0.115000
     14 C4          15.5380   -24.8810   -25.4600 ca         1 7QF      -0.012000
     15 C3          14.9900   -24.0980   -26.5060 cp         1 7QF      -0.094000
     16 C2          15.6440   -22.8860   -26.8350 ca         1 7QF      -0.028000
     17 N1          17.6040   -25.9910   -22.8580 n1         1 7QF      -0.473000
     18 C           17.3280   -23.2600   -25.1140 ca         1 7QF       0.368000
     19 N           18.4580   -22.8100   -24.4750 nv         1 7QF      -1.093000
     20 O           10.4700   -23.0450   -30.2700 os         1 7QF      -0.452000
     21 N2           8.0730   -23.2280   -29.0930 n7         1 7QF      -0.853400
     22 H1          17.2780   -21.5420   -26.4230 ha         1 7QF       0.117000
     23 H3           9.0530   -22.2620   -27.4660 h1         1 7QF       0.063700
     24 H4           7.8940   -21.1940   -29.6910 h1         1 7QF       0.051700
     25 H5           7.3850   -22.3640   -30.9160 h1         1 7QF       0.051700
     26 H6           9.9680   -21.0550   -30.6480 h1         1 7QF       0.050700
     27 H7           9.4660   -22.2160   -31.8950 h1         1 7QF       0.050700
     28 H8          10.9940   -21.9540   -28.5900 h1         1 7QF       0.051700
     29 H9          12.9480   -22.5400   -27.4740 ha         1 7QF       0.110000
     30 H10         14.2450   -26.6580   -27.2020 ha         1 7QF       0.114000
     31 H11         12.2080   -27.3750   -28.4070 ha         1 7QF       0.114000
     32 H12         10.5410   -25.6950   -29.1670 ha         1 7QF       0.122000
     33 H13         15.0480   -25.8100   -25.1750 ha         1 7QF       0.124000
     34 H14         15.2620   -22.2620   -27.6410 ha         1 7QF       0.116000
     35 H15         18.9640   -23.4280   -23.8440 hn         1 7QF       0.478000
     36 H16         18.9720   -22.0200   -24.8610 hn         1 7QF       0.478000
     37 H17          8.1820   -24.1270   -29.5810 hn         1 7QF       0.420000
     38 H2           9.2250   -24.0170   -27.4800 h1         1 7QF       0.063700
@<TRIPOS>BOND
     1     1    16 ar  
     2     1    18 ar  
     3     1    22 1   
     4     2     5 1   
     5     2    21 1   
     6     2    23 1   
     7     2    38 1   
     8     3     4 1   
     9     3    21 1   
    10     3    24 1   
    11     3    25 1   
    12     4    20 1   
    13     4    26 1   
    14     4    27 1   
    15     5     7 1   
    16     5    20 1   
    17     5    28 1   
    18     6     7 ar  
    19     6    11 ar  
    20     6    29 1   
    21     7    10 ar  
    22     8     9 ar  
    23     8    11 ar  
    24     8    30 1   
    25     9    10 ar  
    26     9    31 1   
    27    10    32 1   
    28    11    15 1   
    29    12    13 1   
    30    12    17 3   
    31    13    14 ar  
    32    13    18 ar  
    33    14    15 ar  
    34    14    33 1   
    35    15    16 ar  
    36    16    34 1   
    37    18    19 1   
    38    19    35 1   
    39    19    36 1   
    40    21    37 1   
@<TRIPOS>SUBSTRUCTURE
     1 7QF         1 TEMP              0 ****  ****    0 ROOT
