@<TRIPOS>MOLECULE
7QG
   92    92     1     0     0
SMALL
abcg2


@<TRIPOS>ATOM
      1 C10         -4.7550     1.9950   -13.4540 c3         1 7QG      -0.082400
      2 C13         -2.7590     1.2590   -10.8820 c3         1 7QG       0.146800
      3 C15         -6.6060     3.6000   -13.9720 c          1 7QG       0.586100
      4 C20         -7.5640     5.5060   -10.6440 c3         1 7QG      -0.072400
      5 C21         -8.0910     4.1440   -10.1980 c3         1 7QG      -0.085400
      6 C22         -7.3570     3.6130    -8.9750 c3         1 7QG       0.150800
      7 C24         -8.8690     5.8450   -14.3370 c          1 7QG       0.573100
      8 C28         -8.2810     4.9570   -17.4740 c3         1 7QG      -0.113400
      9 C01         -1.7940     9.1420   -16.1870 c          1 7QG       0.590100
     10 C04         -1.8290     6.8490   -15.3240 c3         1 7QG       0.112000
     11 C05         -2.7240     6.2410   -14.2480 c3         1 7QG      -0.177400
     12 C06         -3.7480     5.2600   -14.7870 c          1 7QG       0.597100
     13 C09         -5.1220     3.2900   -14.2000 c3         1 7QG       0.036700
     14 C11         -4.9420     2.0340   -11.9270 c3         1 7QG      -0.086400
     15 C12         -3.7000     2.4340   -11.1170 c3         1 7QG      -0.076400
     16 C18         -8.2640     5.1890   -13.0840 c3         1 7QG       0.028700
     17 C19         -8.2780     6.0980   -11.8620 c3         1 7QG      -0.077400
     18 C27         -9.5210     5.2890   -16.6440 c3         1 7QG       0.095000
     19 C29         -8.3570     5.5100   -18.8930 c3         1 7QG      -0.064400
     20 C30         -7.1770     5.1090   -19.7770 c3         1 7QG      -0.073400
     21 C31         -5.7790     5.4810   -19.2480 c3         1 7QG       0.164500
     22 C36         -5.6860     6.9730   -18.8960 c          1 7QG       0.567100
     23 C39         -4.9580     9.1860   -19.5960 c3         1 7QG       0.028000
     24 C40         -3.6410     9.3860   -18.8480 c          1 7QG       0.561100
     25 C43         -2.5620    10.2810   -16.8540 c3         1 7QG       0.023000
     26 N03         -2.4390     7.9790   -16.0070 ns         1 7QG      -0.491900
     27 N08         -4.2310     4.3870   -13.8720 ns         1 7QG      -0.524900
     28 N14         -1.5550     1.6850   -10.1560 n8         1 7QG      -1.004200
     29 N17         -6.9020     4.7810   -13.4150 ns         1 7QG      -0.488900
     30 N23         -7.8260     2.2650    -8.6220 n8         1 7QG      -1.003200
     31 N26         -9.3120     4.9510   -15.2430 ns         1 7QG      -0.487900
     32 N32         -4.8030     5.0560   -20.2270 nu         1 7QG      -0.992400
     33 N34         -2.6960     4.7790   -21.1260 nv         1 7QG      -1.028200
     34 N35         -2.8640     5.1820   -18.8550 n2         1 7QG      -0.889100
     35 N38         -5.1970     7.7820   -19.8550 ns         1 7QG      -0.486900
     36 N42         -3.7350     9.9240   -17.6170 ns         1 7QG      -0.507900
     37 O02         -0.6440     9.3600   -15.8020 o          1 7QG      -0.621100
     38 O07         -4.1140     5.2620   -15.9600 o          1 7QG      -0.601100
     39 O16         -7.4610     2.7650   -14.2810 o          1 7QG      -0.634100
     40 O25         -8.8800     7.0630   -14.5040 o          1 7QG      -0.597100
     41 O37         -6.0670     7.3950   -17.8060 o          1 7QG      -0.603100
     42 O41         -2.5660     9.0640   -19.3480 o          1 7QG      -0.578100
     43 H101        -5.3910     1.2170   -13.8770 hc         1 7QG       0.063700
     44 H102        -3.7260     1.7340   -13.7090 hc         1 7QG       0.063700
     45 H131        -3.2740     0.5070   -10.2760 h1         1 7QG       0.031200
     46 H132        -2.5280     0.7850   -11.8460 h1         1 7QG       0.031200
     47 H201        -6.4940     5.4200   -10.8540 hc         1 7QG       0.037700
     48 H202        -7.6550     6.2180    -9.8190 hc         1 7QG       0.037700
     49 H212        -9.1630     4.2170    -9.9790 hc         1 7QG       0.050700
     50 H211        -7.9850     3.4120   -11.0030 hc         1 7QG       0.050700
     51 H221        -6.2890     3.5470    -9.2000 h1         1 7QG       0.026700
     52 H222        -7.4640     4.3300    -8.1490 h1         1 7QG       0.026700
     53 H282        -8.1420     3.8720   -17.4980 hc         1 7QG       0.056200
     54 H281        -7.4130     5.3810   -16.9680 hc         1 7QG       0.056200
     55 H042        -1.5360     6.0870   -16.0490 h1         1 7QG       0.073200
     56 H041        -0.9220     7.2260   -14.8580 h1         1 7QG       0.073200
     57 H052        -2.1030     5.7340   -13.5070 hc         1 7QG       0.066700
     58 H051        -3.2580     7.0350   -13.7190 hc         1 7QG       0.066700
     59 H1          -5.0240     3.1150   -15.2710 h1         1 7QG       0.101700
     60 H112        -5.7740     2.6940   -11.6720 hc         1 7QG       0.055200
     61 H111        -5.2480     1.0370   -11.5970 hc         1 7QG       0.055200
     62 H122        -3.1300     3.2190   -11.6270 hc         1 7QG       0.039700
     63 H121        -4.0010     2.8500   -10.1530 hc         1 7QG       0.039700
     64 H181        -8.8190     4.2740   -12.8780 h1         1 7QG       0.084700
     65 H191        -7.8220     7.0540   -12.1280 hc         1 7QG       0.064700
     66 H192        -9.3230     6.3060   -11.6190 hc         1 7QG       0.064700
     67 H271        -9.7410     6.3540   -16.6980 h1         1 7QG       0.060200
     68 H272       -10.3930     4.7470   -17.0150 h1         1 7QG       0.060200
     69 H292        -8.4350     6.5990   -18.8480 hc         1 7QG       0.047700
     70 H291        -9.2700     5.1550   -19.3810 hc         1 7QG       0.047700
     71 H302        -7.1780     4.0260   -19.9220 hc         1 7QG       0.045700
     72 H301        -7.2970     5.5630   -20.7650 hc         1 7QG       0.045700
     73 H311        -5.5990     4.9540   -18.3090 h1         1 7QG       0.102700
     74 H392        -4.8840     9.7110   -20.5470 h1         1 7QG       0.073200
     75 H391        -5.7990     9.5910   -19.0360 h1         1 7QG       0.073200
     76 H431        -1.8470    10.8070   -17.4860 h1         1 7QG       0.078200
     77 H432        -2.8680    10.9600   -16.0570 h1         1 7QG       0.078200
     78 H031        -3.3670     7.8700   -16.3900 hn         1 7QG       0.337500
     79 H081        -3.8580     4.4370   -12.9370 hn         1 7QG       0.318500
     80 H2          -0.9500     0.8860    -9.9920 hn         1 7QG       0.394000
     81 H141        -1.0200     2.3250   -10.7360 hn         1 7QG       0.394000
     82 H171        -6.1500     5.4300   -13.2420 hn         1 7QG       0.329500
     83 H232        -7.3190     1.9250    -7.8110 hn         1 7QG       0.394500
     84 H3          -8.8010     2.3090    -8.3420 hn         1 7QG       0.394500
     85 H261        -9.1070     3.9800   -15.0390 hn         1 7QG       0.329500
     86 H321        -5.1130     4.9930   -21.1840 hn         1 7QG       0.476000
     87 H341        -1.7540     4.4790   -20.9290 hn         1 7QG       0.461000
     88 H4          -3.1350     4.2470   -21.8630 hn         1 7QG       0.461000
     89 H352        -3.5100     5.3800   -18.0980 hn         1 7QG       0.412400
     90 H381        -4.7940     7.3640   -20.6790 hn         1 7QG       0.333500
     91 H421        -4.6440    10.1620   -17.2520 hn         1 7QG       0.328500
     92 C33         -3.4510     5.0050   -19.9880 c2         1 7QG       0.795100
@<TRIPOS>BOND
     1     1    13 1   
     2     1    14 1   
     3     1    43 1   
     4     1    44 1   
     5     2    15 1   
     6     2    28 1   
     7     2    45 1   
     8     2    46 1   
     9     3    13 1   
    10     3    29 1   
    11     3    39 2   
    12     4     5 1   
    13     4    17 1   
    14     4    47 1   
    15     4    48 1   
    16     5     6 1   
    17     5    49 1   
    18     5    50 1   
    19     6    30 1   
    20     6    51 1   
    21     6    52 1   
    22     7    16 1   
    23     7    31 1   
    24     7    40 2   
    25     8    18 1   
    26     8    19 1   
    27     8    53 1   
    28     8    54 1   
    29     9    25 1   
    30     9    26 1   
    31     9    37 2   
    32    10    11 1   
    33    10    26 1   
    34    10    55 1   
    35    10    56 1   
    36    11    12 1   
    37    11    57 1   
    38    11    58 1   
    39    12    27 1   
    40    12    38 2   
    41    13    27 1   
    42    13    59 1   
    43    14    15 1   
    44    14    60 1   
    45    14    61 1   
    46    15    62 1   
    47    15    63 1   
    48    16    17 1   
    49    16    29 1   
    50    16    64 1   
    51    17    65 1   
    52    17    66 1   
    53    18    31 1   
    54    18    67 1   
    55    18    68 1   
    56    19    20 1   
    57    19    69 1   
    58    19    70 1   
    59    20    21 1   
    60    20    71 1   
    61    20    72 1   
    62    21    22 1   
    63    21    32 1   
    64    21    73 1   
    65    22    35 1   
    66    22    41 2   
    67    23    24 1   
    68    23    35 1   
    69    23    74 1   
    70    23    75 1   
    71    24    36 1   
    72    24    42 2   
    73    25    36 1   
    74    25    76 1   
    75    25    77 1   
    76    26    78 1   
    77    27    79 1   
    78    28    80 1   
    79    28    81 1   
    80    29    82 1   
    81    30    83 1   
    82    30    84 1   
    83    31    85 1   
    84    32    86 1   
    85    32    92 1   
    86    33    87 1   
    87    33    88 1   
    88    33    92 1   
    89    34    89 1   
    90    34    92 2   
    91    35    90 1   
    92    36    91 1   
@<TRIPOS>SUBSTRUCTURE
     1 7QG         1 TEMP              0 ****  ****    0 ROOT
