@<TRIPOS>MOLECULE
7QG
   92    92     1     0     0
SMALL
No Charge or Current Charge


@<TRIPOS>ATOM
      1 C10         -4.6910     1.8830   -13.7310 c3         1 7QG      -0.082400
      2 C13         -2.6420     2.6970   -11.3980 c3         1 7QG       0.146800
      3 C15         -6.8010     3.3630   -13.9610 c          1 7QG       0.586100
      4 C20         -7.6040     5.1550   -10.3510 c3         1 7QG      -0.072400
      5 C21         -8.1410     3.7970    -9.8410 c3         1 7QG      -0.085400
      6 C22         -7.3760     3.2780    -8.6070 c3         1 7QG       0.150800
      7 C24         -9.2880     5.5360   -13.9700 c          1 7QG       0.573100
      8 C28         -8.4320     5.1250   -17.3170 c3         1 7QG      -0.113400
      9 C01         -0.9300     8.0260   -16.6490 c          1 7QG       0.590100
     10 C04         -1.7770     6.3250   -14.9850 c3         1 7QG       0.112000
     11 C05         -3.1820     6.4190   -14.3570 c3         1 7QG      -0.177400
     12 C06         -4.1230     5.3500   -14.9090 c          1 7QG       0.597100
     13 C09         -5.3000     3.1760   -14.3370 c3         1 7QG       0.036700
     14 C11         -4.8860     1.6640   -12.2010 c3         1 7QG      -0.086400
     15 C12         -4.1800     2.6670   -11.2540 c3         1 7QG      -0.076400
     16 C18         -8.4800     4.8880   -12.8060 c3         1 7QG       0.028700
     17 C19         -8.4120     5.7640   -11.5270 c3         1 7QG      -0.077400
     18 C27         -9.6920     5.2270   -16.4410 c3         1 7QG       0.095000
     19 C29         -8.5760     5.7460   -18.7250 c3         1 7QG      -0.064400
     20 C30         -7.3590     5.4760   -19.6520 c3         1 7QG      -0.073400
     21 C31         -5.9710     5.8790   -19.0820 c3         1 7QG       0.164500
     22 C36         -5.8350     7.4310   -18.8400 c          1 7QG       0.567100
     23 C39         -4.5450     9.4910   -19.5900 c3         1 7QG       0.028000
     24 C40         -3.1240     9.6920   -19.0050 c          1 7QG       0.561100
     25 C43         -1.0430     8.5450   -18.1030 c3         1 7QG       0.023000
     26 N03         -1.7120     6.9360   -16.3190 ns         1 7QG      -0.491900
     27 N08         -4.4700     4.3640   -14.0110 ns         1 7QG      -0.524900
     28 N14         -2.0230     3.5900   -10.4010 n8         1 7QG      -1.004200
     29 N17         -7.1230     4.5190   -13.2800 ns         1 7QG      -0.488900
     30 N23         -7.9190     1.9910    -8.1360 n8         1 7QG      -1.003200
     31 N26         -9.3700     4.7500   -15.0980 ns         1 7QG      -0.487900
     32 N32         -4.9010     5.3110   -19.9730 nu         1 7QG      -0.992400
     33 N34         -3.1170     5.7580   -20.8420 nv         1 7QG      -1.028200
     34 N35         -3.1690     5.6490   -18.6170 n2         1 7QG      -0.889100
     35 N38         -4.9420     8.0680   -19.6780 ns         1 7QG      -0.486900
     36 N42         -2.4350     8.5550   -18.6200 ns         1 7QG      -0.507900
     37 O02         -0.2070     8.5730   -15.8260 o          1 7QG      -0.621100
     38 O07         -4.5710     5.3830   -16.0420 o          1 7QG      -0.601100
     39 O16         -7.6640     2.5540   -14.2740 o          1 7QG      -0.634100
     40 O25         -9.7610     6.6650   -13.9270 o          1 7QG      -0.597100
     41 O37         -6.4300     8.0380   -17.9590 o          1 7QG      -0.603100
     42 O41         -2.6300    10.8060   -18.8940 o          1 7QG      -0.578100
     43 H101        -5.1550     1.0300   -14.2420 hc         1 7QG       0.063700
     44 H102        -3.6250     1.8290   -13.9840 hc         1 7QG       0.063700
     45 H131        -2.2400     1.6840   -11.2570 h1         1 7QG       0.031200
     46 H132        -2.3620     3.0440   -12.4020 h1         1 7QG       0.031200
     47 H201        -6.5530     5.0430   -10.6450 hc         1 7QG       0.037700
     48 H202        -7.6150     5.8720    -9.5210 hc         1 7QG       0.037700
     49 H212        -9.2040     3.9010    -9.5920 hc         1 7QG       0.050700
     50 H211        -8.0660     3.0500   -10.6410 hc         1 7QG       0.050700
     51 H221        -6.3150     3.1420    -8.8590 h1         1 7QG       0.026700
     52 H222        -7.4490     4.0100    -7.7910 h1         1 7QG       0.026700
     53 H282        -8.1490     4.0690   -17.4120 hc         1 7QG       0.056200
     54 H281        -7.6150     5.6290   -16.7850 hc         1 7QG       0.056200
     55 H042        -1.4680     5.2730   -15.0550 h1         1 7QG       0.073200
     56 H041        -1.0640     6.8280   -14.3180 h1         1 7QG       0.073200
     57 H052        -3.0780     6.2920   -13.2740 hc         1 7QG       0.066700
     58 H051        -3.5990     7.4110   -14.5640 hc         1 7QG       0.066700
     59 H1          -5.2930     3.0560   -15.4280 h1         1 7QG       0.101700
     60 H112        -5.9580     1.6600   -11.9700 hc         1 7QG       0.055200
     61 H111        -4.5280     0.6570   -11.9550 hc         1 7QG       0.055200
     62 H122        -4.5930     3.6720   -11.3980 hc         1 7QG       0.039700
     63 H121        -4.4260     2.3840   -10.2230 hc         1 7QG       0.039700
     64 H181        -9.0150     3.9630   -12.5550 h1         1 7QG       0.084700
     65 H191        -7.9710     6.7360   -11.7830 hc         1 7QG       0.064700
     66 H192        -9.4340     5.9710   -11.1840 hc         1 7QG       0.064700
     67 H271       -10.0360     6.2690   -16.4010 h1         1 7QG       0.060200
     68 H272       -10.4970     4.6100   -16.8630 h1         1 7QG       0.060200
     69 H292        -8.7410     6.8270   -18.6330 hc         1 7QG       0.047700
     70 H291        -9.4730     5.3380   -19.2060 hc         1 7QG       0.047700
     71 H302        -7.3440     4.4030   -19.8780 hc         1 7QG       0.045700
     72 H301        -7.5190     5.9920   -20.6070 hc         1 7QG       0.045700
     73 H311        -5.8750     5.4130   -18.0960 h1         1 7QG       0.102700
     74 H392        -4.5580     9.9240   -20.5980 h1         1 7QG       0.073200
     75 H391        -5.2530    10.0440   -18.9610 h1         1 7QG       0.073200
     76 H431        -0.4410     7.8820   -18.7350 h1         1 7QG       0.078200
     77 H432        -0.6060     9.5510   -18.1430 h1         1 7QG       0.078200
     78 H031        -2.2540     6.5180   -17.0740 hn         1 7QG       0.337500
     79 H081        -4.0320     4.4110   -13.0990 hn         1 7QG       0.318500
     80 H2          -1.0080     3.6200   -10.5600 hn         1 7QG       0.394000
     81 H141        -2.3240     4.5560   -10.5720 hn         1 7QG       0.394000
     82 H171        -6.3550     5.1530   -13.0970 hn         1 7QG       0.329500
     83 H232        -7.4240     1.7130    -7.2800 hn         1 7QG       0.394500
     84 H3          -8.8850     2.1330    -7.8190 hn         1 7QG       0.394500
     85 H261        -8.9430     3.8300   -15.0120 hn         1 7QG       0.329500
     86 H321        -5.0710     5.3740   -20.9680 hn         1 7QG       0.476000
     87 H341        -2.1960     6.1310   -20.6650 hn         1 7QG       0.461000
     88 H4          -3.0860     5.0280   -21.5390 hn         1 7QG       0.461000
     89 H352        -3.9140     5.4090   -17.9450 hn         1 7QG       0.412400
     90 H381        -4.4560     7.4510   -20.3270 hn         1 7QG       0.333500
     91 H421        -2.9160     7.6640   -18.7450 hn         1 7QG       0.328500
     92 C33         -3.6070     5.3190   -19.7240 c2         1 7QG       0.795100
@<TRIPOS>BOND
     1     1    13 1   
     2     1    14 1   
     3     1    43 1   
     4     1    44 1   
     5     2    15 1   
     6     2    28 1   
     7     2    45 1   
     8     2    46 1   
     9     3    13 1   
    10     3    29 1   
    11     3    39 2   
    12     4     5 1   
    13     4    17 1   
    14     4    47 1   
    15     4    48 1   
    16     5     6 1   
    17     5    49 1   
    18     5    50 1   
    19     6    30 1   
    20     6    51 1   
    21     6    52 1   
    22     7    16 1   
    23     7    31 1   
    24     7    40 2   
    25     8    18 1   
    26     8    19 1   
    27     8    53 1   
    28     8    54 1   
    29     9    25 1   
    30     9    26 1   
    31     9    37 2   
    32    10    11 1   
    33    10    26 1   
    34    10    55 1   
    35    10    56 1   
    36    11    12 1   
    37    11    57 1   
    38    11    58 1   
    39    12    27 1   
    40    12    38 2   
    41    13    27 1   
    42    13    59 1   
    43    14    15 1   
    44    14    60 1   
    45    14    61 1   
    46    15    62 1   
    47    15    63 1   
    48    16    17 1   
    49    16    29 1   
    50    16    64 1   
    51    17    65 1   
    52    17    66 1   
    53    18    31 1   
    54    18    67 1   
    55    18    68 1   
    56    19    20 1   
    57    19    69 1   
    58    19    70 1   
    59    20    21 1   
    60    20    71 1   
    61    20    72 1   
    62    21    22 1   
    63    21    32 1   
    64    21    73 1   
    65    22    35 1   
    66    22    41 2   
    67    23    24 1   
    68    23    35 1   
    69    23    74 1   
    70    23    75 1   
    71    24    36 1   
    72    24    42 2   
    73    25    36 1   
    74    25    76 1   
    75    25    77 1   
    76    26    78 1   
    77    27    79 1   
    78    28    80 1   
    79    28    81 1   
    80    29    82 1   
    81    30    83 1   
    82    30    84 1   
    83    31    85 1   
    84    32    86 1   
    85    32    92 1   
    86    33    87 1   
    87    33    88 1   
    88    33    92 1   
    89    34    89 1   
    90    34    92 2   
    91    35    90 1   
    92    36    91 1   
@<TRIPOS>SUBSTRUCTURE
     1 7QG         1 TEMP              0 ****  ****    0 ROOT
