@<TRIPOS>MOLECULE
7QH
   16    15     1     0     0
SMALL
No Charge or Current Charge


@<TRIPOS>ATOM
      1 C01         46.5110  -418.3330    37.8990 c3         1 7QH       0.287700
      2 C02         45.0640  -417.9340    38.2150 ce         1 7QH       0.139300
      3 C03         44.4050  -416.8950    37.2920 c          1 7QH       0.635700
      4 C04         44.2240  -417.3570    41.3500 c          1 7QH       0.675100
      5 F01         46.6380  -418.8460    36.6520 f          1 7QH      -0.123667
      6 F02         46.9840  -419.2780    38.7470 f          1 7QH      -0.123667
      7 F03         47.3600  -417.2820    37.9900 f          1 7QH      -0.123667
      8 N01         44.3890  -418.4980    39.1900 n2         1 7QH      -0.406300
      9 N02         43.7180  -417.7080    40.1120 ns         1 7QH      -0.296900
     10 N03         43.4100  -416.5680    42.0750 nt         1 7QH      -0.637000
     11 O01         45.0630  -416.3820    36.3950 o          1 7QH      -0.700000
     12 O02         43.2250  -416.5990    37.4590 o          1 7QH      -0.700000
     13 O03         45.3080  -417.7080    41.7860 o          1 7QH      -0.632100
     14 H3          42.8070  -417.3190    39.8860 hn         1 7QH       0.383500
     15 H4          43.7120  -416.2710    42.9900 hn         1 7QH       0.311500
     16 H5          42.5130  -416.2780    41.7160 hn         1 7QH       0.311500
@<TRIPOS>BOND
     1     1     2 1   
     2     1     5 1   
     3     1     6 1   
     4     1     7 1   
     5     2     3 1   
     6     2     8 2   
     7     3    11 1   
     8     3    12 1   
     9     4     9 1   
    10     4    10 1   
    11     4    13 2   
    12     8     9 1   
    13     9    14 1   
    14    10    15 1   
    15    10    16 1   
@<TRIPOS>SUBSTRUCTURE
     1 7QH         1 TEMP              0 ****  ****    0 ROOT
