@<TRIPOS>MOLECULE
7QH
   16    15     1     0     0
SMALL
bcc


@<TRIPOS>ATOM
      1 C01         46.5010  -418.3870    37.6870 c3         1 7QH       0.651600
      2 C02         45.3120  -417.6950    38.2900 ce         1 7QH       0.139300
      3 C03         44.4050  -416.8970    37.3650 c          1 7QH       0.846300
      4 C04         44.1120  -417.4130    41.5700 c          1 7QH       0.809100
      5 F01         46.1500  -419.2570    36.7290 f          1 7QH      -0.244967
      6 F02         47.2020  -419.0880    38.5850 f          1 7QH      -0.244967
      7 F03         47.3600  -417.5150    37.1360 f          1 7QH      -0.244967
      8 N01         45.1990  -417.8380    39.5550 n2         1 7QH      -0.406300
      9 N02         44.1980  -417.2660    40.1950 ns         1 7QH      -0.363900
     10 N03         43.0510  -416.7710    42.0970 nt         1 7QH      -0.704000
     11 O01         44.7200  -416.8630    36.1710 o          1 7QH      -0.805300
     12 O02         43.4220  -416.3450    37.9140 o          1 7QH      -0.805300
     13 O03         44.9200  -418.0480    42.2230 o          1 7QH      -0.632100
     14 H3          43.5440  -416.7230    39.6140 hn         1 7QH       0.383500
     15 H4          42.8750  -416.8490    43.0830 hn         1 7QH       0.311500
     16 H5          42.3580  -416.3010    41.5390 hn         1 7QH       0.311500
@<TRIPOS>BOND
     1     1     2 1   
     2     1     5 1   
     3     1     6 1   
     4     1     7 1   
     5     2     3 1   
     6     2     8 2   
     7     3    11 1   
     8     3    12 1   
     9     4     9 1   
    10     4    10 1   
    11     4    13 2   
    12     8     9 1   
    13     9    14 1   
    14    10    15 1   
    15    10    16 1   
@<TRIPOS>SUBSTRUCTURE
     1 7QH         1 TEMP              0 ****  ****    0 ROOT
