@<TRIPOS>MOLECULE
7QI
   38    40     1     0     0
SMALL
No Charge or Current Charge


@<TRIPOS>ATOM
      1 C           16.3050   -23.7270   -24.8730 ca         1 7QI       0.371000
      2 N           17.1220   -23.1740   -23.9170 nv         1 7QI      -1.098000
      3 C1          15.5600   -22.8610   -25.6830 ca         1 7QI      -0.203000
      4 C2          14.7070   -23.3680   -26.6780 ca         1 7QI      -0.026000
      5 C13         10.2500   -24.4750   -29.5530 c6         1 7QI       0.190800
      6 N1          17.5340   -26.8070   -23.5970 n1         1 7QI      -0.476000
      7 C6          16.9330   -26.0450   -24.2480 cg         1 7QI       0.333000
      8 C5          16.1940   -25.1200   -25.0590 ca         1 7QI      -0.119000
      9 C4          15.3380   -25.6270   -26.0580 ca         1 7QI      -0.011000
     10 C3          14.5790   -24.7630   -26.8860 cp         1 7QI      -0.095000
     11 C7          13.6720   -25.3060   -27.9460 cp         1 7QI      -0.028000
     12 C12         12.4370   -24.6760   -28.2460 ca         1 7QI      -0.077000
     13 C11         11.5760   -25.1800   -29.2420 ca         1 7QI      -0.084300
     14 C10         11.9470   -26.3360   -29.9540 ca         1 7QI      -0.108000
     15 C9          13.1650   -26.9760   -29.6740 ca         1 7QI      -0.111000
     16 C8          14.0180   -26.4670   -28.6810 ca         1 7QI      -0.101000
     17 N2           9.3630   -24.4680   -28.3480 n7         1 7QI      -0.874400
     18 C16          8.3640   -23.3490   -28.3470 c6         1 7QI       0.129800
     19 C15          8.0190   -22.8610   -29.7870 c6         1 7QI       0.125600
     20 O            9.1980   -22.4020   -30.5090 os         1 7QI      -0.456000
     21 C14         10.4570   -23.0340   -30.1250 c6         1 7QI       0.152600
     22 H1          17.8020   -23.7580   -23.4330 hn         1 7QI       0.480000
     23 H2          17.2970   -22.1710   -23.9260 hn         1 7QI       0.480000
     24 H3          15.6390   -21.7860   -25.5480 ha         1 7QI       0.116000
     25 H4          14.1510   -22.6710   -27.3010 ha         1 7QI       0.118000
     26 H5           9.7380   -25.0510   -30.3390 h1         1 7QI       0.039700
     27 H6          15.2490   -26.7040   -26.1860 ha         1 7QI       0.124000
     28 H7          12.1340   -23.7960   -27.6850 ha         1 7QI       0.132000
     29 H8          11.2950   -26.7380   -30.7260 ha         1 7QI       0.111000
     30 H9          13.4500   -27.8670   -30.2300 ha         1 7QI       0.114000
     31 H10         14.9620   -26.9710   -28.4910 ha         1 7QI       0.114000
     32 H11          8.8710   -25.3700   -28.3180 hn         1 7QI       0.421000
     33 H13          8.7800   -22.4960   -27.7880 h1         1 7QI       0.057700
     34 H14          7.4490   -23.6620   -27.8230 h1         1 7QI       0.057700
     35 H15          7.2870   -22.0420   -29.7440 h1         1 7QI       0.044700
     36 H16          7.5610   -23.6880   -30.3490 h1         1 7QI       0.044700
     37 H17         11.1180   -23.0680   -31.0030 h1         1 7QI       0.054700
     38 H18         10.9460   -22.4080   -29.3650 h1         1 7QI       0.054700
@<TRIPOS>BOND
     1     1     2 1   
     2     1     3 ar  
     3     1     8 ar  
     4     2    22 1   
     5     2    23 1   
     6     3     4 ar  
     7     3    24 1   
     8     4    10 ar  
     9     4    25 1   
    10     5    13 1   
    11     5    17 1   
    12     5    21 1   
    13     5    26 1   
    14     6     7 3   
    15     7     8 1   
    16     8     9 ar  
    17     9    10 ar  
    18     9    27 1   
    19    10    11 1   
    20    11    12 ar  
    21    11    16 ar  
    22    12    13 ar  
    23    12    28 1   
    24    13    14 ar  
    25    14    15 ar  
    26    14    29 1   
    27    15    16 ar  
    28    15    30 1   
    29    16    31 1   
    30    17    18 1   
    31    17    32 1   
    32    18    19 1   
    33    18    33 1   
    34    18    34 1   
    35    19    20 1   
    36    19    35 1   
    37    19    36 1   
    38    20    21 1   
    39    21    37 1   
    40    21    38 1   
@<TRIPOS>SUBSTRUCTURE
     1 7QI         1 TEMP              0 ****  ****    0 ROOT
