@<TRIPOS>MOLECULE
7QI
   38    40     1     0     0
SMALL
abcg2


@<TRIPOS>ATOM
      1 C           16.1620   -23.7760   -24.7850 ca         1 7QI       0.371000
      2 N           16.9070   -23.2940   -23.7630 nv         1 7QI      -1.098000
      3 C1          15.3140   -22.9330   -25.5220 ca         1 7QI      -0.203000
      4 C2          14.5230   -23.4250   -26.5330 ca         1 7QI      -0.026000
      5 C13         10.1870   -24.6280   -29.4180 c6         1 7QI       0.190800
      6 N1          17.6530   -26.7640   -23.8090 n1         1 7QI      -0.476000
      7 C6          16.9810   -26.0470   -24.4150 cg         1 7QI       0.333000
      8 C5          16.1590   -25.1420   -25.1370 ca         1 7QI      -0.119000
      9 C4          15.3500   -25.6250   -26.1710 ca         1 7QI      -0.011000
     10 C3          14.5180   -24.7830   -26.8890 cp         1 7QI      -0.095000
     11 C7          13.6610   -25.2880   -27.9790 cp         1 7QI      -0.028000
     12 C12         12.3780   -24.7720   -28.1660 ca         1 7QI      -0.077000
     13 C11         11.5520   -25.2330   -29.1840 ca         1 7QI      -0.084300
     14 C10         12.0200   -26.2340   -30.0300 ca         1 7QI      -0.108000
     15 C9          13.2930   -26.7580   -29.8580 ca         1 7QI      -0.111000
     16 C8          14.1110   -26.2880   -28.8420 ca         1 7QI      -0.101000
     17 N2           9.5590   -24.1720   -28.1840 n7         1 7QI      -0.874400
     18 C16          8.7170   -22.9920   -28.3510 c6         1 7QI       0.129800
     19 C15          8.0930   -22.9080   -29.7310 c6         1 7QI       0.125600
     20 O            9.0770   -22.9040   -30.7530 os         1 7QI      -0.456000
     21 C14         10.3230   -23.4420   -30.3720 c6         1 7QI       0.152600
     22 H1          17.6780   -23.8280   -23.3990 hn         1 7QI       0.480000
     23 H2          17.0140   -22.2970   -23.6810 hn         1 7QI       0.480000
     24 H3          15.2950   -21.8750   -25.2910 ha         1 7QI       0.116000
     25 H4          13.9010   -22.7290   -27.0820 ha         1 7QI       0.118000
     26 H5           9.5730   -25.3820   -29.9310 h1         1 7QI       0.039700
     27 H6          15.3740   -26.6850   -26.3890 ha         1 7QI       0.124000
     28 H7          11.9910   -24.0170   -27.4930 ha         1 7QI       0.132000
     29 H8          11.3840   -26.6090   -30.8250 ha         1 7QI       0.111000
     30 H9          13.6520   -27.5340   -30.5210 ha         1 7QI       0.114000
     31 H10         15.1110   -26.6910   -28.7330 ha         1 7QI       0.114000
     32 H11          9.0250   -24.9270   -27.7790 hn         1 7QI       0.421000
     33 H13          9.3000   -22.0850   -28.1620 h1         1 7QI       0.057700
     34 H14          7.9280   -23.0080   -27.5990 h1         1 7QI       0.057700
     35 H15          7.5030   -21.9920   -29.8270 h1         1 7QI       0.044700
     36 H16          7.4070   -23.7530   -29.8740 h1         1 7QI       0.044700
     37 H17         10.8280   -23.7650   -31.2850 h1         1 7QI       0.054700
     38 H18         10.9640   -22.6820   -29.9010 h1         1 7QI       0.054700
@<TRIPOS>BOND
     1     1     2 1   
     2     1     3 ar  
     3     1     8 ar  
     4     2    22 1   
     5     2    23 1   
     6     3     4 ar  
     7     3    24 1   
     8     4    10 ar  
     9     4    25 1   
    10     5    13 1   
    11     5    17 1   
    12     5    21 1   
    13     5    26 1   
    14     6     7 3   
    15     7     8 1   
    16     8     9 ar  
    17     9    10 ar  
    18     9    27 1   
    19    10    11 1   
    20    11    12 ar  
    21    11    16 ar  
    22    12    13 ar  
    23    12    28 1   
    24    13    14 ar  
    25    14    15 ar  
    26    14    29 1   
    27    15    16 ar  
    28    15    30 1   
    29    16    31 1   
    30    17    18 1   
    31    17    32 1   
    32    18    19 1   
    33    18    33 1   
    34    18    34 1   
    35    19    20 1   
    36    19    35 1   
    37    19    36 1   
    38    20    21 1   
    39    21    37 1   
    40    21    38 1   
@<TRIPOS>SUBSTRUCTURE
     1 7QI         1 TEMP              0 ****  ****    0 ROOT
