@<TRIPOS>MOLECULE
7QJ
   44    46     1     0     0
SMALL
No Charge or Current Charge


@<TRIPOS>ATOM
      1 C9          18.2910     1.8720    22.8980 ca         1 7QJ       0.291000
      2 C8          20.3510     9.4410    26.1690 c          1 7QJ       0.726000
      3 C7          19.3670     8.5360    26.9050 c3         1 7QJ      -0.225400
      4 C10         19.0690     0.7140    22.6840 ca         1 7QJ      -0.084300
      5 C5          17.9740     5.1300    26.3590 ca         1 7QJ       0.417300
      6 C6          19.2370     7.2260    26.1130 c3         1 7QJ       0.192600
      7 N1          17.0920     4.4380    27.1080 nb         1 7QJ      -0.216000
      8 C2          17.2930     2.6690    25.5140 ca         1 7QJ      -0.304000
      9 C3          16.7420     3.2030    26.6910 ca         1 7QJ       0.068300
     10 C4          15.7510     2.4010    27.5470 c3         1 7QJ       0.260700
     11 O2          19.9120    10.1850    25.3060 o          1 7QJ      -0.731500
     12 O1          21.5370     9.3390    26.4380 o          1 7QJ      -0.731500
     13 O           18.3060     6.3860    26.8220 os         1 7QJ      -0.443300
     14 F2          14.7860     1.8270    26.7910 f          1 7QJ      -0.111333
     15 F1          15.1160     3.1580    28.4750 f          1 7QJ      -0.111333
     16 F           16.3710     1.4020    28.2160 f          1 7QJ      -0.111333
     17 N2          18.5400     4.6830    25.2170 nb         1 7QJ      -0.315000
     18 C1          18.1980     3.4560    24.7870 ca         1 7QJ       0.422900
     19 N           18.8000     2.9920    23.5950 nh         1 7QJ      -0.815100
     20 C           19.9430     3.7300    22.9950 c3         1 7QJ       0.230100
     21 C17         16.9740     1.8910    22.3930 ca         1 7QJ      -0.109000
     22 C16         16.4540     0.7830    21.6920 ca         1 7QJ      -0.109000
     23 C15         17.2500    -0.3600    21.4900 ca         1 7QJ      -0.101000
     24 C14         18.5570    -0.3730    22.0000 ca         1 7QJ      -0.086300
     25 C13         19.5490    -1.5010    21.8910 c5         1 7QJ      -0.033100
     26 C12         20.5550    -1.1100    23.0370 c5         1 7QJ      -0.079400
     27 C11         20.4850     0.4600    23.1470 c5         1 7QJ      -0.032100
     28 H1          19.7560     8.2590    27.8920 hc         1 7QJ       0.036700
     29 H2          18.3650     8.9820    26.9240 hc         1 7QJ       0.036700
     30 H3          18.8740     7.4420    25.0990 h1         1 7QJ       0.052200
     31 H4          20.2200     6.7410    26.0360 h1         1 7QJ       0.052200
     32 H5          17.0280     1.6680    25.1890 ha         1 7QJ       0.145000
     33 H7          20.7960     3.7520    23.6860 h1         1 7QJ       0.050033
     34 H8          20.2760     3.2460    22.0670 h1         1 7QJ       0.050033
     35 H9          19.6540     4.7590    22.7420 h1         1 7QJ       0.050033
     36 H10         16.3560     2.7720    22.5420 ha         1 7QJ       0.129000
     37 H11         15.4370     0.8120    21.3060 ha         1 7QJ       0.113000
     38 H12         16.8570    -1.2190    20.9520 ha         1 7QJ       0.111000
     39 H13         19.1000    -2.4880    22.0520 hc         1 7QJ       0.049700
     40 H14         20.0370    -1.5110    20.9090 hc         1 7QJ       0.049700
     41 H15         20.2370    -1.5640    23.9820 hc         1 7QJ       0.046200
     42 H16         21.5720    -1.4700    22.8420 hc         1 7QJ       0.046200
     43 H17         21.2140     0.9420    22.4870 hc         1 7QJ       0.062200
     44 H18         20.6750     0.8110    24.1680 hc         1 7QJ       0.062200
@<TRIPOS>BOND
     1     1     4 ar  
     2     1    19 1   
     3     1    21 ar  
     4     2     3 1   
     5     2    11 1   
     6     2    12 1   
     7     3     6 1   
     8     3    28 1   
     9     3    29 1   
    10     4    24 ar  
    11     4    27 1   
    12     5     7 ar  
    13     5    13 1   
    14     5    17 ar  
    15     6    13 1   
    16     6    30 1   
    17     6    31 1   
    18     7     9 ar  
    19     8     9 ar  
    20     8    18 ar  
    21     8    32 1   
    22     9    10 1   
    23    10    14 1   
    24    10    15 1   
    25    10    16 1   
    26    17    18 ar  
    27    18    19 1   
    28    19    20 1   
    29    20    33 1   
    30    20    34 1   
    31    20    35 1   
    32    21    22 ar  
    33    21    36 1   
    34    22    23 ar  
    35    22    37 1   
    36    23    24 ar  
    37    23    38 1   
    38    24    25 1   
    39    25    26 1   
    40    25    39 1   
    41    25    40 1   
    42    26    27 1   
    43    26    41 1   
    44    26    42 1   
    45    27    43 1   
    46    27    44 1   
@<TRIPOS>SUBSTRUCTURE
     1 7QJ         1 TEMP              0 ****  ****    0 ROOT
