@<TRIPOS>MOLECULE
7QJ
   44    46     1     0     0
SMALL
abcg2


@<TRIPOS>ATOM
      1 C9          18.1270     1.9060    22.8370 ca         1 7QJ       0.291000
      2 C8          20.6130     9.1970    26.2690 c          1 7QJ       0.726000
      3 C7          19.6330     8.2100    26.9380 c3         1 7QJ      -0.225400
      4 C10         18.9800     0.8190    22.7180 ca         1 7QJ      -0.084300
      5 C5          18.0530     4.9990    26.3560 ca         1 7QJ       0.417300
      6 C6          19.3790     6.9620    26.1240 c3         1 7QJ       0.192600
      7 N1          17.1980     4.3400    27.1220 nb         1 7QJ      -0.216000
      8 C2          17.1840     2.6530    25.4230 ca         1 7QJ      -0.304000
      9 C3          16.7920     3.1750    26.6250 ca         1 7QJ       0.068300
     10 C4          15.8180     2.4550    27.5210 c3         1 7QJ       0.260700
     11 O2          21.0540     8.8880    25.1440 o          1 7QJ      -0.731500
     12 O1          20.8740    10.2250    26.9230 o          1 7QJ      -0.731500
     13 O           18.4580     6.1470    26.8660 os         1 7QJ      -0.443300
     14 F2          15.4700     1.2570    27.0500 f          1 7QJ      -0.111333
     15 F1          14.6970     3.1680    27.6690 f          1 7QJ      -0.111333
     16 F           16.3340     2.2720    28.7390 f          1 7QJ      -0.111333
     17 N2          18.5110     4.6210    25.1770 nb         1 7QJ      -0.315000
     18 C1          18.0870     3.4570    24.6860 ca         1 7QJ       0.422900
     19 N           18.5690     3.0910    23.4830 nh         1 7QJ      -0.815100
     20 C           19.5440     3.9290    22.8030 c3         1 7QJ       0.230100
     21 C17         16.8450     1.8330    22.2980 ca         1 7QJ      -0.109000
     22 C16         16.4260     0.6790    21.6500 ca         1 7QJ      -0.109000
     23 C15         17.2830    -0.4100    21.5180 ca         1 7QJ      -0.101000
     24 C14         18.5580    -0.3310    22.0540 ca         1 7QJ      -0.086300
     25 C13         19.6600    -1.3540    22.0380 c5         1 7QJ      -0.033100
     26 C12         20.6100    -0.8570    23.1410 c5         1 7QJ      -0.079400
     27 C11         20.3900     0.6640    23.2100 c5         1 7QJ      -0.032100
     28 H1          20.0240     7.9400    27.9230 hc         1 7QJ       0.036700
     29 H2          18.6880     8.7310    27.1240 hc         1 7QJ       0.036700
     30 H3          18.9520     7.2040    25.1490 h1         1 7QJ       0.052200
     31 H4          20.3020     6.4060    25.9520 h1         1 7QJ       0.052200
     32 H5          16.8370     1.6990    25.0610 ha         1 7QJ       0.145000
     33 H7          20.4420     4.0650    23.4030 h1         1 7QJ       0.050033
     34 H8          19.8190     3.4450    21.8700 h1         1 7QJ       0.050033
     35 H9          19.1290     4.9110    22.5730 h1         1 7QJ       0.050033
     36 H10         16.1770     2.6800    22.3910 ha         1 7QJ       0.129000
     37 H11         15.4250     0.6310    21.2410 ha         1 7QJ       0.113000
     38 H12         16.9510    -1.3060    21.0080 ha         1 7QJ       0.111000
     39 H13         19.3020    -2.3700    22.2100 hc         1 7QJ       0.049700
     40 H14         20.1560    -1.3530    21.0620 hc         1 7QJ       0.049700
     41 H15         20.3260    -1.3070    24.0940 hc         1 7QJ       0.046200
     42 H16         21.6500    -1.1230    22.9530 hc         1 7QJ       0.046200
     43 H17         21.0820     1.1930    22.5460 hc         1 7QJ       0.062200
     44 H18         20.5430     1.0700    24.2110 hc         1 7QJ       0.062200
@<TRIPOS>BOND
     1     1     4 ar  
     2     1    19 1   
     3     1    21 ar  
     4     2     3 1   
     5     2    11 1   
     6     2    12 1   
     7     3     6 1   
     8     3    28 1   
     9     3    29 1   
    10     4    24 ar  
    11     4    27 1   
    12     5     7 ar  
    13     5    13 1   
    14     5    17 ar  
    15     6    13 1   
    16     6    30 1   
    17     6    31 1   
    18     7     9 ar  
    19     8     9 ar  
    20     8    18 ar  
    21     8    32 1   
    22     9    10 1   
    23    10    14 1   
    24    10    15 1   
    25    10    16 1   
    26    17    18 ar  
    27    18    19 1   
    28    19    20 1   
    29    20    33 1   
    30    20    34 1   
    31    20    35 1   
    32    21    22 ar  
    33    21    36 1   
    34    22    23 ar  
    35    22    37 1   
    36    23    24 ar  
    37    23    38 1   
    38    24    25 1   
    39    25    26 1   
    40    25    39 1   
    41    25    40 1   
    42    26    27 1   
    43    26    41 1   
    44    26    42 1   
    45    27    43 1   
    46    27    44 1   
@<TRIPOS>SUBSTRUCTURE
     1 7QJ         1 TEMP              0 ****  ****    0 ROOT
