@<TRIPOS>MOLECULE
7QK
   31    30     1     0     0
SMALL
No Charge or Current Charge


@<TRIPOS>ATOM
      1 N          -27.1450     4.5140    47.6230 n8         1 7QK      -1.001200
      2 CA         -25.9070     5.3770    47.6520 c3         1 7QK       0.013500
      3 C          -26.1260     6.8920    48.0670 c          1 7QK       0.692000
      4 O          -25.4830     7.3340    49.0090 o          1 7QK      -0.735000
      5 CB         -25.1390     5.2980    46.3040 c3         1 7QK      -0.048400
      6 CG         -24.5690     3.8970    45.9690 c3         1 7QK      -0.070400
      7 CD         -23.7580     3.8740    44.6540 c3         1 7QK      -0.100400
      8 CE         -23.1910     2.4790    44.3230 c3         1 7QK       0.094000
      9 NZ         -22.4020     2.4640    43.0680 n          1 7QK      -0.408800
     10 CH1        -20.9940     2.9150    43.1490 c3         1 7QK       0.093300
     11 CH2        -22.9720     2.0200    41.8500 c          1 7QK       0.598100
     12 CT         -22.1040     2.0160    40.5870 c3         1 7QK      -0.178100
     13 OT         -24.1360     1.6460    41.7920 o          1 7QK      -0.602100
     14 H1         -27.5970     4.5480    48.5440 hn         1 7QK       0.381500
     15 H          -27.8350     4.9640    47.0090 hn         1 7QK       0.381500
     16 HA         -25.2480     4.9470    48.4200 h1         1 7QK       0.033700
     17 HB3        -24.3030     6.0080    46.3410 hc         1 7QK       0.037700
     18 HB2        -25.7930     5.6330    45.4890 hc         1 7QK       0.037700
     19 HG3        -25.3910     3.1750    45.8910 hc         1 7QK       0.036200
     20 HG2        -23.9270     3.5640    46.7930 hc         1 7QK       0.036200
     21 HD2        -22.9310     4.5910    44.7270 hc         1 7QK       0.040200
     22 HD3        -24.3980     4.2040    43.8270 hc         1 7QK       0.040200
     23 HE2        -24.0150     1.7570    44.2580 h1         1 7QK       0.052700
     24 HE3        -22.5450     2.1490    45.1480 h1         1 7QK       0.052700
     25 HH12       -20.7500     3.2260    44.1730 h1         1 7QK       0.032700
     26 HH11       -20.3220     2.0960    42.8630 h1         1 7QK       0.032700
     27 HH13       -20.8370     3.7690    42.4790 h1         1 7QK       0.032700
     28 HT3        -22.6470     1.6530    39.7060 hc         1 7QK       0.053033
     29 HT1        -21.7040     3.0220    40.4190 hc         1 7QK       0.053033
     30 HT2        -21.2000     1.4240    40.7680 hc         1 7QK       0.053033
     31 OXT        -27.0110     7.5280    47.5070 o          1 7QK      -0.735000
@<TRIPOS>BOND
     1     1     2 1   
     2     1    14 1   
     3     1    15 1   
     4     2     3 1   
     5     2     5 1   
     6     2    16 1   
     7     3     4 1   
     8     3    31 1   
     9     5     6 1   
    10     5    17 1   
    11     5    18 1   
    12     6     7 1   
    13     6    19 1   
    14     6    20 1   
    15     7     8 1   
    16     7    21 1   
    17     7    22 1   
    18     8     9 1   
    19     8    23 1   
    20     8    24 1   
    21     9    10 1   
    22     9    11 1   
    23    10    25 1   
    24    10    26 1   
    25    10    27 1   
    26    11    12 1   
    27    11    13 2   
    28    12    28 1   
    29    12    29 1   
    30    12    30 1   
@<TRIPOS>SUBSTRUCTURE
     1 7QK         1 TEMP              0 ****  ****    0 ROOT
