@<TRIPOS>MOLECULE
7QK
   31    30     1     0     0
SMALL
bcc


@<TRIPOS>ATOM
      1 N          -26.9100     4.4020    47.6390 n8         1 7QK      -0.890800
      2 CA         -25.8430     5.3930    47.5930 c3         1 7QK       0.013500
      3 C          -26.3010     6.8580    47.8220 c          1 7QK       0.902600
      4 O          -25.4120     7.6660    48.1650 o          1 7QK      -0.840300
      5 CB         -25.0980     5.3070    46.2560 c3         1 7QK      -0.048400
      6 CG         -24.5090     3.9340    45.9580 c3         1 7QK      -0.070400
      7 CD         -23.7150     3.8920    44.6580 c3         1 7QK      -0.100400
      8 CE         -23.2460     2.4770    44.3350 c3         1 7QK       0.094000
      9 NZ         -22.4370     2.3830    43.1320 n          1 7QK      -0.475800
     10 CH1        -21.0290     2.7090    43.2490 c3         1 7QK       0.093300
     11 CH2        -23.0380     2.2100    41.9330 c          1 7QK       0.665100
     12 CT         -22.1370     2.1950    40.7190 c3         1 7QK      -0.178100
     13 OT         -24.2480     2.0550    41.8240 o          1 7QK      -0.602100
     14 H1         -27.2850     4.3730    48.5800 hn         1 7QK       0.326300
     15 H          -27.6770     4.7570    47.0770 hn         1 7QK       0.326300
     16 HA         -25.1250     5.1400    48.3820 h1         1 7QK       0.033700
     17 HB3        -24.2980     6.0530    46.2550 hc         1 7QK       0.037700
     18 HB2        -25.7800     5.5900    45.4450 hc         1 7QK       0.037700
     19 HG3        -25.3150     3.1970    45.9130 hc         1 7QK       0.036200
     20 HG2        -23.8630     3.6280    46.7880 hc         1 7QK       0.036200
     21 HD2        -22.8510     4.5610    44.7260 hc         1 7QK       0.040200
     22 HD3        -24.3320     4.2610    43.8330 hc         1 7QK       0.040200
     23 HE2        -24.1090     1.8190    44.2330 h1         1 7QK       0.052700
     24 HE3        -22.6520     2.0870    45.1660 h1         1 7QK       0.052700
     25 HH12       -20.7230     2.5820    44.2850 h1         1 7QK       0.032700
     26 HH11       -20.4100     2.0440    42.6480 h1         1 7QK       0.032700
     27 HH13       -20.8080     3.7390    42.9590 h1         1 7QK       0.032700
     28 HT3        -22.7430     2.0990    39.8230 hc         1 7QK       0.053033
     29 HT1        -21.5390     3.1040    40.6410 hc         1 7QK       0.053033
     30 HT2        -21.4410     1.3550    40.7550 hc         1 7QK       0.053033
     31 OXT        -27.5050     7.1160    47.6160 o          1 7QK      -0.840300
@<TRIPOS>BOND
     1     1     2 1   
     2     1    14 1   
     3     1    15 1   
     4     2     3 1   
     5     2     5 1   
     6     2    16 1   
     7     3     4 1   
     8     3    31 1   
     9     5     6 1   
    10     5    17 1   
    11     5    18 1   
    12     6     7 1   
    13     6    19 1   
    14     6    20 1   
    15     7     8 1   
    16     7    21 1   
    17     7    22 1   
    18     8     9 1   
    19     8    23 1   
    20     8    24 1   
    21     9    10 1   
    22     9    11 1   
    23    10    25 1   
    24    10    26 1   
    25    10    27 1   
    26    11    12 1   
    27    11    13 2   
    28    12    28 1   
    29    12    29 1   
    30    12    30 1   
@<TRIPOS>SUBSTRUCTURE
     1 7QK         1 TEMP              0 ****  ****    0 ROOT
