@<TRIPOS>MOLECULE
7QL
   44    46     1     0     0
SMALL
No Charge or Current Charge


@<TRIPOS>ATOM
      1 C1         -10.7510    22.6740   -29.5330 c6         1 7QL       0.007300
      2 C2         -10.6280    22.7920   -31.0910 c6         1 7QL      -0.103900
      3 C3         -11.9420    22.3730   -31.7930 c6         1 7QL       0.154600
      4 C4         -12.4600    20.7920   -30.0440 c6         1 7QL       0.154600
      5 C5         -11.1830    21.1880   -29.2540 c6         1 7QL      -0.103900
      6 C8         -12.4430    26.0970   -28.8410 ca         1 7QL      -0.110000
      7 C11        -12.7830    23.4330   -28.0600 ca         1 7QL      -0.097000
      8 C12        -14.7690    24.0490   -26.6070 cp         1 7QL      -0.093000
      9 C13        -15.4760    22.8300   -26.7460 ca         1 7QL      -0.028000
     10 C15        -16.8630    23.3490   -24.8100 ca         1 7QL       0.366000
     11 C16        -16.1730    24.5690   -24.6500 ca         1 7QL      -0.115000
     12 C17        -16.4990    25.4800   -23.5890 cg         1 7QL       0.332000
     13 C18        -15.1380    24.9100   -25.5440 ca         1 7QL      -0.013000
     14 N2         -16.7580    26.2290   -22.7320 n1         1 7QL      -0.474000
     15 N1         -17.8810    22.9630   -23.9720 nv         1 7QL      -1.091000
     16 C14        -16.5080    22.4890   -25.8570 ca         1 7QL      -0.200000
     17 C10        -13.6690    24.4170   -27.5530 cp         1 7QL      -0.024000
     18 C9         -13.4810    25.7560   -27.9650 ca         1 7QL      -0.106000
     19 C7         -11.5800    25.1070   -29.3320 ca         1 7QL      -0.116000
     20 C6         -11.7420    23.7490   -28.9690 ca         1 7QL      -0.067300
     21 C           -9.3400    22.9350   -28.8980 c3         1 7QL       0.161800
     22 N           -9.3000    22.8670   -27.4200 n8         1 7QL      -1.002200
     23 O          -12.2510    21.0050   -31.4550 os         1 7QL      -0.452000
     24 H1          -9.8190    22.1400   -31.4510 hc         1 7QL       0.054200
     25 H2         -10.3450    23.8030   -31.4070 hc         1 7QL       0.054200
     26 H3         -11.8260    22.4530   -32.8840 h1         1 7QL       0.044700
     27 H4         -12.7730    23.0270   -31.4880 h1         1 7QL       0.044700
     28 H5         -13.3290    21.3790   -29.7170 h1         1 7QL       0.044700
     29 H6         -12.6870    19.7300   -29.8760 h1         1 7QL       0.044700
     30 H7         -11.3220    21.0020   -28.1820 hc         1 7QL       0.054200
     31 H8         -10.3730    20.5110   -29.5560 hc         1 7QL       0.054200
     32 H9         -12.3050    27.1340   -29.1400 ha         1 7QL       0.113000
     33 H10        -12.9160    22.4160   -27.7090 ha         1 7QL       0.119000
     34 H11        -15.2320    22.1480   -27.5570 ha         1 7QL       0.116000
     35 H12        -14.6030    25.8470   -25.4050 ha         1 7QL       0.124000
     36 H13        -18.2750    23.6300   -23.3110 hn         1 7QL       0.476500
     37 H14        -18.4550    22.1570   -24.2150 hn         1 7QL       0.476500
     38 H15        -17.0340    21.5470   -25.9900 ha         1 7QL       0.117000
     39 H16        -14.1480    26.5370   -27.6070 ha         1 7QL       0.115000
     40 H17        -10.7740    25.4130   -29.9940 ha         1 7QL       0.110000
     41 H18         -8.6210    22.2050   -29.2960 h1         1 7QL       0.029200
     42 H19         -8.9980    23.9350   -29.1990 h1         1 7QL       0.029200
     43 H20         -8.3880    23.2050   -27.0940 hn         1 7QL       0.398000
     44 H21         -9.9630    23.5580   -27.0510 hn         1 7QL       0.398000
@<TRIPOS>BOND
     1     1     2 1   
     2     1     5 1   
     3     1    20 1   
     4     1    21 1   
     5     2     3 1   
     6     2    24 1   
     7     2    25 1   
     8     3    23 1   
     9     3    26 1   
    10     3    27 1   
    11     4     5 1   
    12     4    23 1   
    13     4    28 1   
    14     4    29 1   
    15     5    30 1   
    16     5    31 1   
    17     6    18 ar  
    18     6    19 ar  
    19     6    32 1   
    20     7    17 ar  
    21     7    20 ar  
    22     7    33 1   
    23     8     9 ar  
    24     8    13 ar  
    25     8    17 1   
    26     9    16 ar  
    27     9    34 1   
    28    10    11 ar  
    29    10    15 1   
    30    10    16 ar  
    31    11    12 1   
    32    11    13 ar  
    33    12    14 3   
    34    13    35 1   
    35    15    36 1   
    36    15    37 1   
    37    16    38 1   
    38    17    18 ar  
    39    18    39 1   
    40    19    20 ar  
    41    19    40 1   
    42    21    22 1   
    43    21    41 1   
    44    21    42 1   
    45    22    43 1   
    46    22    44 1   
@<TRIPOS>SUBSTRUCTURE
     1 7QL         1 TEMP              0 ****  ****    0 ROOT
