@<TRIPOS>MOLECULE
7QL
   44    46     1     0     0
SMALL
bcc


@<TRIPOS>ATOM
      1 C1         -10.8150    22.6890   -29.5020 c6         1 7QL       0.007300
      2 C2         -10.5150    22.8380   -31.0040 c6         1 7QL      -0.103900
      3 C3         -11.7120    22.4600   -31.8600 c6         1 7QL       0.131400
      4 C4         -12.4700    20.9220   -30.2660 c6         1 7QL       0.131400
      5 C5         -11.3180    21.2480   -29.3280 c6         1 7QL      -0.103900
      6 C8         -12.5910    26.0330   -28.9880 ca         1 7QL      -0.128000
      7 C11        -12.7960    23.4450   -28.0750 ca         1 7QL      -0.115000
      8 C12        -14.7130    24.0470   -26.5970 cp         1 7QL      -0.093000
      9 C13        -15.3360    22.7880   -26.6100 ca         1 7QL      -0.046000
     10 C15        -16.7170    23.3320   -24.6960 ca         1 7QL       0.227600
     11 C16        -16.0990    24.5980   -24.6830 ca         1 7QL      -0.115000
     12 C17        -16.4780    25.5510   -23.7000 cg         1 7QL       0.242800
     13 C18        -15.1150    24.9370   -25.6170 ca         1 7QL      -0.031000
     14 N2         -16.8060    26.3170   -22.9020 n1         1 7QL      -0.384800
     15 N1         -17.6380    22.9650   -23.7710 nv         1 7QL      -0.842200
     16 C14        -16.3010    22.4360   -25.6950 ca         1 7QL      -0.218000
     17 C10        -13.6840    24.4090   -27.5900 cp         1 7QL      -0.024000
     18 C9         -13.5760    25.7140   -28.0670 ca         1 7QL      -0.124000
     19 C7         -11.7230    25.0610   -29.4580 ca         1 7QL      -0.134000
     20 C6         -11.8190    23.7370   -29.0230 ca         1 7QL      -0.067300
     21 C           -9.5040    22.8980   -28.7230 c3         1 7QL       0.161800
     22 N           -9.6720    22.7250   -27.2920 n8         1 7QL      -0.891800
     23 O          -12.1330    21.1360   -31.6200 os         1 7QL      -0.405600
     24 H1          -9.6780    22.1770   -31.2520 hc         1 7QL       0.054200
     25 H2         -10.1870    23.8460   -31.2610 hc         1 7QL       0.054200
     26 H3         -11.4540    22.5230   -32.9190 h1         1 7QL       0.044700
     27 H4         -12.5380    23.1660   -31.6840 h1         1 7QL       0.044700
     28 H5         -13.3580    21.5120   -29.9970 h1         1 7QL       0.044700
     29 H6         -12.7430    19.8690   -30.1720 h1         1 7QL       0.044700
     30 H7         -11.6080    21.0300   -28.3000 hc         1 7QL       0.054200
     31 H8         -10.4840    20.5740   -29.5480 hc         1 7QL       0.054200
     32 H9         -12.5070    27.0490   -29.3530 ha         1 7QL       0.131000
     33 H10        -12.8730    22.4400   -27.6820 ha         1 7QL       0.137000
     34 H11        -15.0730    22.0690   -27.3760 ha         1 7QL       0.134000
     35 H12        -14.6580    25.9160   -25.5460 ha         1 7QL       0.142000
     36 H13        -18.1230    23.6720   -23.2420 hn         1 7QL       0.421300
     37 H14        -18.1890    22.1440   -23.9590 hn         1 7QL       0.421300
     38 H15        -16.7620    21.4580   -25.7480 ha         1 7QL       0.135000
     39 H16        -14.2690    26.4780   -27.7370 ha         1 7QL       0.133000
     40 H17        -10.9640    25.3490   -30.1740 ha         1 7QL       0.128000
     41 H18         -8.7830    22.1540   -29.0720 h1         1 7QL       0.029200
     42 H19         -9.0950    23.8810   -29.0030 h1         1 7QL       0.029200
     43 H20         -8.7630    22.7140   -26.8480 hn         1 7QL       0.342800
     44 H21        -10.1610    23.5220   -26.9040 hn         1 7QL       0.342800
@<TRIPOS>BOND
     1     1     2 1   
     2     1     5 1   
     3     1    20 1   
     4     1    21 1   
     5     2     3 1   
     6     2    24 1   
     7     2    25 1   
     8     3    23 1   
     9     3    26 1   
    10     3    27 1   
    11     4     5 1   
    12     4    23 1   
    13     4    28 1   
    14     4    29 1   
    15     5    30 1   
    16     5    31 1   
    17     6    18 ar  
    18     6    19 ar  
    19     6    32 1   
    20     7    17 ar  
    21     7    20 ar  
    22     7    33 1   
    23     8     9 ar  
    24     8    13 ar  
    25     8    17 1   
    26     9    16 ar  
    27     9    34 1   
    28    10    11 ar  
    29    10    15 1   
    30    10    16 ar  
    31    11    12 1   
    32    11    13 ar  
    33    12    14 3   
    34    13    35 1   
    35    15    36 1   
    36    15    37 1   
    37    16    38 1   
    38    17    18 ar  
    39    18    39 1   
    40    19    20 ar  
    41    19    40 1   
    42    21    22 1   
    43    21    41 1   
    44    21    42 1   
    45    22    43 1   
    46    22    44 1   
@<TRIPOS>SUBSTRUCTURE
     1 7QL         1 TEMP              0 ****  ****    0 ROOT
