@<TRIPOS>MOLECULE
7QM
   73    75     1     0     0
SMALL
abcg2


@<TRIPOS>ATOM
      1 C10        -16.9080    -0.2750    17.0930 c6         1 7QM       0.172300
      2 C13        -17.7820     2.2770    16.0670 c6         1 7QM       0.144300
      3 C15        -18.9140     3.1880    15.6500 c3         1 7QM       0.168600
      4 C22        -14.1580     6.4640    20.9270 c6         1 7QM       0.396300
      5 C24        -13.2610     8.0490    19.2210 c6         1 7QM       0.164300
      6 C26        -11.9170     7.2660    21.1880 c6         1 7QM       0.141300
      7 C28        -10.9450     7.6200    22.2950 c3         1 7QM       0.158800
      8 C01        -13.8730     1.7410    21.2650 c6         1 7QM      -0.108400
      9 C02        -13.2660     3.1280    21.0830 c6         1 7QM       0.159500
     10 C03        -14.3180     4.0610    20.5000 c6         1 7QM       0.148300
     11 C04        -14.9090     3.5330    19.1920 c6         1 7QM       0.172300
     12 C05        -15.4570     2.1210    19.3480 c6         1 7QM       0.192300
     13 C06        -14.4190     1.1740    19.9550 c6         1 7QM       0.128500
     14 C09        -17.0790     0.9830    17.9480 c6         1 7QM       0.358300
     15 C11        -16.5740     0.0970    15.6460 c6         1 7QM       0.161500
     16 C12        -17.6180     1.0830    15.1200 c6         1 7QM       0.131300
     17 C23        -14.5110     7.6030    19.9600 c6         1 7QM       0.140500
     18 C25        -12.1700     8.4200    20.2150 c6         1 7QM       0.109300
     19 N07        -15.0010    -0.1680    20.0950 n8         1 7QM      -1.004200
     20 N18        -16.5500    -1.0760    14.7680 n7         1 7QM      -0.852400
     21 N29        -10.6760     6.4540    23.1420 n8         1 7QM      -1.006200
     22 N32        -15.5530     7.1740    19.0220 n8         1 7QM      -1.003200
     23 N33        -12.8010     3.6490    22.3710 n8         1 7QM      -1.014200
     24 O08        -15.8430     1.6420    18.0590 os         1 7QM      -0.469000
     25 O14        -18.0730     1.8200    17.3940 os         1 7QM      -0.454000
     26 O16        -18.8580     4.3850    16.4270 oh         1 7QM      -0.702000
     27 O17        -17.1810     1.5230    13.8290 oh         1 7QM      -0.727000
     28 O19        -15.9400    -1.1480    17.6490 oh         1 7QM      -0.754000
     29 O20        -15.9540     4.3760    18.7440 oh         1 7QM      -0.738000
     30 O21        -13.7470     5.3390    20.1980 os         1 7QM      -0.494000
     31 O27        -13.1500     6.8860    21.8250 os         1 7QM      -0.475000
     32 O30        -11.0000     8.7250    19.4520 oh         1 7QM      -0.725000
     33 O31        -13.6080     9.1610    18.3980 oh         1 7QM      -0.675000
     34 H1         -17.8820    -0.7800    17.0870 h1         1 7QM       0.058700
     35 H2         -16.8480     2.8470    16.0740 h1         1 7QM       0.089700
     36 H3         -18.8090     3.4200    14.5860 h1         1 7QM       0.023200
     37 H4         -19.8660     2.6680    15.8020 h1         1 7QM       0.023200
     38 H5         -15.0190     6.2190    21.5520 h2         1 7QM       0.078700
     39 H6         -12.8960     7.2280    18.5920 h1         1 7QM       0.078700
     40 H7         -11.5250     6.4110    20.6270 h1         1 7QM       0.081700
     41 H8         -10.0070     7.9350    21.8360 h1         1 7QM       0.035200
     42 H9         -11.3490     8.4780    22.8510 h1         1 7QM       0.035200
     43 H10        -14.6820     1.7980    22.0020 hc         1 7QM       0.051200
     44 H11        -13.1190     1.0600    21.6650 hc         1 7QM       0.051200
     45 H12        -12.4500     3.0570    20.3490 h1         1 7QM       0.034700
     46 H13        -15.1240     4.1910    21.2300 h1         1 7QM       0.058700
     47 H14        -14.1000     3.5020    18.4490 h1         1 7QM       0.051700
     48 H15        -16.3390     2.1620    19.9980 h1         1 7QM       0.050700
     49 H16        -13.6010     1.0880    19.2340 h1         1 7QM       0.080700
     50 H17        -17.4560     0.7160    18.9360 h2         1 7QM       0.067700
     51 H18        -15.6000     0.6090    15.6390 h1         1 7QM       0.059700
     52 H19        -18.5780     0.5630    15.0290 h1         1 7QM       0.046700
     53 H20        -14.8470     8.4440    20.5770 h1         1 7QM       0.048700
     54 H21        -12.4950     9.3030    20.7750 h1         1 7QM       0.049700
     55 H22        -15.2940    -2.5120    13.9140 h1         1 7QM       0.032700
     56 H23        -14.4220    -1.0770    14.4940 h1         1 7QM       0.032700
     57 H24        -15.0490    -2.2600    15.6490 h1         1 7QM       0.032700
     58 H25        -14.2880    -0.8180    20.4130 hn         1 7QM       0.405000
     59 H26        -15.7220    -0.1620    20.8120 hn         1 7QM       0.405000
     60 H28        -16.7650    -0.7450    13.8340 hn         1 7QM       0.404000
     61 H30         -9.9340     6.6710    23.7980 hn         1 7QM       0.404500
     62 H31        -11.4970     6.2430    23.6990 hn         1 7QM       0.404500
     63 H33        -16.4670     7.2900    19.4470 hn         1 7QM       0.420000
     64 H34        -15.5390     7.7770    18.2060 hn         1 7QM       0.420000
     65 H36        -12.0550     3.0580    22.7240 hn         1 7QM       0.411000
     66 H37        -12.3950     4.5710    22.2440 hn         1 7QM       0.411000
     67 H39        -19.5840     4.9570    16.1500 ho         1 7QM       0.493000
     68 H40        -17.9510     1.6950    13.2750 ho         1 7QM       0.502000
     69 H41        -15.6190    -0.7870    18.5180 ho         1 7QM       0.548000
     70 H42        -15.6550     5.3190    18.7680 ho         1 7QM       0.551000
     71 H43        -10.4780     9.3840    19.9250 ho         1 7QM       0.509000
     72 H44        -12.8000     9.4490    17.9520 ho         1 7QM       0.463000
     73 C71        -15.2570    -1.7620    14.7050 c3         1 7QM       0.149100
@<TRIPOS>BOND
     1     1    14 1   
     2     1    15 1   
     3     1    28 1   
     4     1    34 1   
     5     2     3 1   
     6     2    16 1   
     7     2    25 1   
     8     2    35 1   
     9     3    26 1   
    10     3    36 1   
    11     3    37 1   
    12     4    17 1   
    13     4    30 1   
    14     4    31 1   
    15     4    38 1   
    16     5    17 1   
    17     5    18 1   
    18     5    33 1   
    19     5    39 1   
    20     6     7 1   
    21     6    18 1   
    22     6    31 1   
    23     6    40 1   
    24     7    21 1   
    25     7    41 1   
    26     7    42 1   
    27     8     9 1   
    28     8    13 1   
    29     8    43 1   
    30     8    44 1   
    31     9    10 1   
    32     9    23 1   
    33     9    45 1   
    34    10    11 1   
    35    10    30 1   
    36    10    46 1   
    37    11    12 1   
    38    11    29 1   
    39    11    47 1   
    40    12    13 1   
    41    12    24 1   
    42    12    48 1   
    43    13    19 1   
    44    13    49 1   
    45    14    24 1   
    46    14    25 1   
    47    14    50 1   
    48    15    16 1   
    49    15    20 1   
    50    15    51 1   
    51    16    27 1   
    52    16    52 1   
    53    17    22 1   
    54    17    53 1   
    55    18    32 1   
    56    18    54 1   
    57    19    58 1   
    58    19    59 1   
    59    20    60 1   
    60    20    73 1   
    61    21    61 1   
    62    21    62 1   
    63    22    63 1   
    64    22    64 1   
    65    23    65 1   
    66    23    66 1   
    67    26    67 1   
    68    27    68 1   
    69    28    69 1   
    70    29    70 1   
    71    32    71 1   
    72    33    72 1   
    73    55    73 1   
    74    56    73 1   
    75    57    73 1   
@<TRIPOS>SUBSTRUCTURE
     1 7QM         1 TEMP              0 ****  ****    0 ROOT
