@<TRIPOS>MOLECULE
7QM
   73    75     1     0     0
SMALL
No Charge or Current Charge


@<TRIPOS>ATOM
      1 C10        -16.9180    -0.1890    17.0220 c6         1 7QM       0.172300
      2 C13        -17.6620     2.3460    15.6630 c6         1 7QM       0.144300
      3 C15        -18.7230     3.3370    15.0750 c3         1 7QM       0.168600
      4 C22        -13.6130     6.2480    21.4030 c6         1 7QM       0.396300
      5 C24        -13.6470     7.9660    19.5070 c6         1 7QM       0.164300
      6 C26        -11.5750     7.5050    20.9030 c6         1 7QM       0.141300
      7 C28        -10.3140     8.0730    21.6380 c3         1 7QM       0.158800
      8 C01        -14.4900     1.6070    21.5050 c6         1 7QM      -0.108400
      9 C02        -13.5150     2.8080    21.4600 c6         1 7QM       0.159500
     10 C03        -14.1220     3.9810    20.6260 c6         1 7QM       0.148300
     11 C04        -14.4930     3.5230    19.1840 c6         1 7QM       0.172300
     12 C05        -15.5000     2.3200    19.2360 c6         1 7QM       0.192300
     13 C06        -14.8820     1.1380    20.0810 c6         1 7QM       0.128500
     14 C09        -17.1030     1.1990    17.7380 c6         1 7QM       0.358300
     15 C11        -16.5420     0.0410    15.5070 c6         1 7QM       0.161500
     16 C12        -17.5640     1.0230    14.8390 c6         1 7QM       0.131300
     17 C23        -14.5100     7.2660    20.6020 c6         1 7QM       0.140500
     18 C25        -12.3730     8.6070    20.1330 c6         1 7QM       0.109300
     19 N07        -15.7710    -0.0520    20.2110 n8         1 7QM      -1.004200
     20 N18        -16.4660    -1.2050    14.6740 n7         1 7QM      -0.852400
     21 N29         -9.5530     7.0700    22.4240 n8         1 7QM      -1.006200
     22 N32        -15.7540     6.6760    19.9920 n8         1 7QM      -1.003200
     23 N33        -13.1640     3.2260    22.8370 n8         1 7QM      -1.014200
     24 O08        -15.8460     1.8980    17.8880 os         1 7QM      -0.469000
     25 O14        -18.0340     2.0430    17.0320 os         1 7QM      -0.454000
     26 O16        -18.8970     4.5310    15.8630 oh         1 7QM      -0.702000
     27 O17        -17.1900     1.2740    13.4620 oh         1 7QM      -0.727000
     28 O19        -15.9390    -1.0070    17.7200 oh         1 7QM      -0.754000
     29 O20        -15.0010     4.6330    18.4030 oh         1 7QM      -0.738000
     30 O21        -13.2210     5.1210    20.5900 os         1 7QM      -0.494000
     31 O27        -12.4230     6.8900    21.9120 os         1 7QM      -0.475000
     32 O30        -11.5850     9.2330    19.0940 oh         1 7QM      -0.725000
     33 O31        -14.4060     8.9720    18.8070 oh         1 7QM      -0.675000
     34 H1         -17.8950    -0.6940    17.0490 h1         1 7QM       0.058700
     35 H2         -16.6860     2.8530    15.6570 h1         1 7QM       0.089700
     36 H3         -18.4150     3.6110    14.0570 h1         1 7QM       0.023200
     37 H4         -19.6800     2.8030    14.9930 h1         1 7QM       0.023200
     38 H5         -14.1900     5.8860    22.2680 h2         1 7QM       0.078700
     39 H6         -13.3150     7.1930    18.7970 h1         1 7QM       0.078700
     40 H7         -11.2390     6.7330    20.1950 h1         1 7QM       0.081700
     41 H8          -9.6340     8.5230    20.9020 h1         1 7QM       0.035200
     42 H9         -10.6450     8.8670    22.3230 h1         1 7QM       0.035200
     43 H10        -15.3930     1.8860    22.0670 hc         1 7QM       0.051200
     44 H11        -14.0230     0.7770    22.0530 hc         1 7QM       0.051200
     45 H12        -12.5810     2.4880    20.9730 h1         1 7QM       0.034700
     46 H13        -15.0590     4.2800    21.1190 h1         1 7QM       0.058700
     47 H14        -13.5700     3.1510    18.7130 h1         1 7QM       0.051700
     48 H15        -16.4150     2.6740    19.7350 h1         1 7QM       0.050700
     49 H16        -13.9670     0.8040    19.5640 h1         1 7QM       0.080700
     50 H17        -17.5320     1.0010    18.7310 h2         1 7QM       0.067700
     51 H18        -15.5600     0.5370    15.4780 h1         1 7QM       0.059700
     52 H19        -18.5530     0.5410    14.8660 h1         1 7QM       0.046700
     53 H20        -14.8440     8.0440    21.3060 h1         1 7QM       0.048700
     54 H21        -12.6960     9.3660    20.8630 h1         1 7QM       0.049700
     55 H22        -15.2780    -2.8570    14.0600 h1         1 7QM       0.032700
     56 H23        -14.3480    -1.4520    14.6210 h1         1 7QM       0.032700
     57 H24        -15.1820    -2.5030    15.7920 h1         1 7QM       0.032700
     58 H25        -15.2830    -0.7560    20.7840 hn         1 7QM       0.405000
     59 H26        -16.5650     0.1980    20.8180 hn         1 7QM       0.405000
     60 H28        -16.5030    -0.8750    13.7000 hn         1 7QM       0.404000
     61 H30         -8.8940     7.5580    23.0440 hn         1 7QM       0.404500
     62 H31        -10.2110     6.6200    23.0730 hn         1 7QM       0.404500
     63 H33        -16.4930     6.6590    20.7090 hn         1 7QM       0.420000
     64 H34        -16.1120     7.3880    19.3360 hn         1 7QM       0.420000
     65 H36        -12.5650     2.5070    23.2600 hn         1 7QM       0.411000
     66 H37        -12.5420     4.0400    22.7640 hn         1 7QM       0.411000
     67 H39        -19.6240     5.0470    15.4450 ho         1 7QM       0.493000
     68 H40        -18.0220     1.3320    12.9370 ho         1 7QM       0.502000
     69 H41        -15.8550    -0.6120    18.6450 ho         1 7QM       0.548000
     70 H42        -15.2170     5.3710    19.0550 ho         1 7QM       0.551000
     71 H43        -11.0140     9.9150    19.5200 ho         1 7QM       0.509000
     72 H44        -13.7230     9.5240    18.3610 ho         1 7QM       0.463000
     73 C71        -15.2560    -2.0440    14.7980 c3         1 7QM       0.149100
@<TRIPOS>BOND
     1     1    14 1   
     2     1    15 1   
     3     1    28 1   
     4     1    34 1   
     5     2     3 1   
     6     2    16 1   
     7     2    25 1   
     8     2    35 1   
     9     3    26 1   
    10     3    36 1   
    11     3    37 1   
    12     4    17 1   
    13     4    30 1   
    14     4    31 1   
    15     4    38 1   
    16     5    17 1   
    17     5    18 1   
    18     5    33 1   
    19     5    39 1   
    20     6     7 1   
    21     6    18 1   
    22     6    31 1   
    23     6    40 1   
    24     7    21 1   
    25     7    41 1   
    26     7    42 1   
    27     8     9 1   
    28     8    13 1   
    29     8    43 1   
    30     8    44 1   
    31     9    10 1   
    32     9    23 1   
    33     9    45 1   
    34    10    11 1   
    35    10    30 1   
    36    10    46 1   
    37    11    12 1   
    38    11    29 1   
    39    11    47 1   
    40    12    13 1   
    41    12    24 1   
    42    12    48 1   
    43    13    19 1   
    44    13    49 1   
    45    14    24 1   
    46    14    25 1   
    47    14    50 1   
    48    15    16 1   
    49    15    20 1   
    50    15    51 1   
    51    16    27 1   
    52    16    52 1   
    53    17    22 1   
    54    17    53 1   
    55    18    32 1   
    56    18    54 1   
    57    19    58 1   
    58    19    59 1   
    59    20    60 1   
    60    20    73 1   
    61    21    61 1   
    62    21    62 1   
    63    22    63 1   
    64    22    64 1   
    65    23    65 1   
    66    23    66 1   
    67    26    67 1   
    68    27    68 1   
    69    28    69 1   
    70    29    70 1   
    71    32    71 1   
    72    33    72 1   
    73    55    73 1   
    74    56    73 1   
    75    57    73 1   
@<TRIPOS>SUBSTRUCTURE
     1 7QM         1 TEMP              0 ****  ****    0 ROOT
