@<TRIPOS>MOLECULE
7QN
   53    55     1     0     0
SMALL
abcg2


@<TRIPOS>ATOM
      1 C1           4.9800     1.5540    -1.7750 c3         1 7QN      -0.041800
      2 C2           3.9170     1.6400    -0.7120 ca         1 7QN      -0.173300
      3 C3           3.6380     2.8490    -0.0730 ca         1 7QN       0.136100
      4 C4           2.6380     2.9190     0.8950 ca         1 7QN      -0.145000
      5 C5           1.9150     1.7900     1.2170 ca         1 7QN      -0.060000
      6 C6           2.1790     0.5650     0.6090 ca         1 7QN      -0.099300
      7 C7           3.2020     0.4920    -0.3320 ca         1 7QN      -0.025300
      8 C8           3.5650    -0.8480    -0.9060 c6         1 7QN      -0.033100
      9 C9           3.0570    -1.9670    -0.0210 c6         1 7QN       0.174800
     10 N10          1.6370    -1.8150     0.2050 n3         1 7QN      -0.720600
     11 C11          1.3310    -0.6370     0.9980 c6         1 7QN       0.294100
     12 C12         -0.1320    -0.2780     0.8420 ca         1 7QN      -0.128300
     13 C13         -0.9430    -0.0540     1.9440 ca         1 7QN      -0.096000
     14 C14         -2.2710     0.3240     1.7830 ca         1 7QN      -0.130000
     15 C15         -2.8280     0.4830     0.5150 ca         1 7QN       0.009200
     16 C16         -2.0020     0.2410    -0.5930 ca         1 7QN      -0.130000
     17 C17         -0.6830    -0.1310    -0.4310 ca         1 7QN      -0.096000
     18 C18         -4.2280     0.8920     0.4010 ce         1 7QN      -0.243200
     19 C19         -4.9270     1.0810    -0.7210 cf         1 7QN      -0.209200
     20 C20         -6.3760     1.5110    -0.7270 c          1 7QN       0.694200
     21 O21         -6.8980     1.6210    -1.8560 o          1 7QN      -0.723000
     22 O22         -6.9280     1.7190     0.3730 o          1 7QN      -0.723000
     23 C23          1.0240    -3.0030     0.7710 c3         1 7QN       0.172800
     24 C24          0.9220    -4.1860    -0.1920 c3         1 7QN      -0.057700
     25 C25          0.1940    -5.3310     0.5050 c3         1 7QN      -0.085600
     26 C26          0.2250    -3.7940    -1.4890 c3         1 7QN      -0.085600
     27 O27          4.3000     3.9990    -0.3370 oh         1 7QN      -0.545100
     28 H11C         5.9520     1.2710    -1.3630 hc         1 7QN       0.035033
     29 H12C         4.7250     0.8140    -2.5310 hc         1 7QN       0.035033
     30 H13C         5.1150     2.4920    -2.3160 hc         1 7QN       0.035033
     31 H4           2.4330     3.8630     1.3850 ha         1 7QN       0.126000
     32 H27          5.0340     3.8490    -0.9400 ho         1 7QN       0.458000
     33 H5           1.1310     1.8650     1.9610 ha         1 7QN       0.127000
     34 H11          1.5130    -0.8320     2.0720 h1         1 7QN       0.026700
     35 H81C         3.1500    -0.9640    -1.9130 hc         1 7QN       0.050200
     36 H82C         4.6490    -0.9360    -1.0050 hc         1 7QN       0.050200
     37 H91C         3.2420    -2.9210    -0.5140 h1         1 7QN       0.027200
     38 H92C         3.6290    -1.9840     0.9230 h1         1 7QN       0.027200
     39 H231         1.5500    -3.3210     1.6890 h1         1 7QN       0.036700
     40 H232         0.0060    -2.7450     1.0780 h1         1 7QN       0.036700
     41 H13         -0.5390    -0.1760     2.9430 ha         1 7QN       0.101500
     42 H17         -0.0640    -0.3170    -1.3000 ha         1 7QN       0.101500
     43 H14         -2.8850     0.4950     2.6590 ha         1 7QN       0.114000
     44 H16         -2.3950     0.3500    -1.5960 ha         1 7QN       0.114000
     45 H18         -4.7390     1.0590     1.3450 ha         1 7QN       0.190000
     46 H19         -4.4680     0.9240    -1.6920 ha         1 7QN       0.144000
     47 H24          1.9290    -4.5420    -0.4380 hc         1 7QN       0.031700
     48 H251        -0.8270    -5.0430     0.7660 hc         1 7QN       0.034200
     49 H252         0.1360    -6.2120    -0.1370 hc         1 7QN       0.034200
     50 H253         0.7020    -5.6250     1.4250 hc         1 7QN       0.034200
     51 H261         0.7560    -2.9890    -1.9960 hc         1 7QN       0.034200
     52 H262         0.1630    -4.6440    -2.1710 hc         1 7QN       0.034200
     53 H263        -0.7920    -3.4450    -1.2960 hc         1 7QN       0.034200
@<TRIPOS>BOND
     1     1     2 1   
     2     1    28 1   
     3     1    29 1   
     4     1    30 1   
     5     2     3 ar  
     6     2     7 ar  
     7     3     4 ar  
     8     3    27 1   
     9     4     5 ar  
    10     4    31 1   
    11     5     6 ar  
    12     5    33 1   
    13     6     7 ar  
    14     6    11 1   
    15     7     8 1   
    16     8     9 1   
    17     8    35 1   
    18     8    36 1   
    19     9    10 1   
    20     9    37 1   
    21     9    38 1   
    22    10    11 1   
    23    10    23 1   
    24    11    12 1   
    25    11    34 1   
    26    12    13 ar  
    27    12    17 ar  
    28    13    14 ar  
    29    13    41 1   
    30    14    15 ar  
    31    14    43 1   
    32    15    16 ar  
    33    15    18 1   
    34    16    17 ar  
    35    16    44 1   
    36    17    42 1   
    37    18    19 2   
    38    18    45 1   
    39    19    20 1   
    40    19    46 1   
    41    20    21 1   
    42    20    22 1   
    43    23    24 1   
    44    23    39 1   
    45    23    40 1   
    46    24    25 1   
    47    24    26 1   
    48    24    47 1   
    49    25    48 1   
    50    25    49 1   
    51    25    50 1   
    52    26    51 1   
    53    26    52 1   
    54    26    53 1   
    55    27    32 1   
@<TRIPOS>SUBSTRUCTURE
     1 7QN         1 TEMP              0 ****  ****    0 ROOT
