@<TRIPOS>MOLECULE
7QN
   53    55     1     0     0
SMALL
No Charge or Current Charge


@<TRIPOS>ATOM
      1 C1           5.3130     1.5270    -1.6290 c3         1 7QN      -0.041800
      2 C2           4.0990     1.6720    -0.6990 ca         1 7QN      -0.173300
      3 C3           3.7350     2.9370    -0.1810 ca         1 7QN       0.136100
      4 C4           2.6220     3.0690     0.6570 ca         1 7QN      -0.145000
      5 C5           1.8490     1.9490     0.9880 ca         1 7QN      -0.060000
      6 C6           2.1840     0.6760     0.4860 ca         1 7QN      -0.099300
      7 C7           3.3280     0.5320    -0.3370 ca         1 7QN      -0.025300
      8 C8           3.7110    -0.8690    -0.8290 c6         1 7QN      -0.033100
      9 C9           3.0700    -1.9990    -0.0020 c6         1 7QN       0.174800
     10 N10          1.6070    -1.7980     0.1290 n3         1 7QN      -0.720600
     11 C11          1.3100    -0.5400     0.8780 c6         1 7QN       0.294100
     12 C12         -0.1830    -0.1780     0.7800 ca         1 7QN      -0.128300
     13 C13         -0.9840    -0.1250     1.9380 ca         1 7QN      -0.096000
     14 C14         -2.3460     0.2070     1.8430 ca         1 7QN      -0.130000
     15 C15         -2.9320     0.4900     0.5940 ca         1 7QN       0.009200
     16 C16         -2.1290     0.4350    -0.5630 ca         1 7QN      -0.130000
     17 C17         -0.7660     0.1030    -0.4700 ca         1 7QN      -0.096000
     18 C18         -4.3810     0.8390     0.5290 ce         1 7QN      -0.243200
     19 C19         -5.1530     1.1470    -0.5610 cf         1 7QN      -0.209200
     20 C20         -6.6090     1.4860    -0.5270 c          1 7QN       0.694200
     21 O21         -7.1540     1.7370    -1.5900 o          1 7QN      -0.723000
     22 O22         -7.1900     1.4970     0.5480 o          1 7QN      -0.723000
     23 C23          0.8920    -2.9770     0.6950 c3         1 7QN       0.172800
     24 C24          0.9090    -4.2680    -0.1740 c3         1 7QN      -0.057700
     25 C25          0.1360    -5.4090     0.5240 c3         1 7QN      -0.085600
     26 C26          0.3620    -4.0220    -1.6010 c3         1 7QN      -0.085600
     27 O27          4.4620     4.0550    -0.4690 oh         1 7QN      -0.545100
     28 H11C         6.1960     1.1930    -1.0690 hc         1 7QN       0.035033
     29 H12C         5.1280     0.7970    -2.4260 hc         1 7QN       0.035033
     30 H13C         5.5760     2.4610    -2.1380 hc         1 7QN       0.035033
     31 H4           2.3540     4.0450     1.0520 ha         1 7QN       0.126000
     32 H27          5.2210     3.7860    -1.0260 ho         1 7QN       0.458000
     33 H5           0.9880     2.0750     1.6400 ha         1 7QN       0.127000
     34 H11          1.5320    -0.7250     1.9400 h1         1 7QN       0.026700
     35 H81C         3.4060    -0.9760    -1.8790 hc         1 7QN       0.050200
     36 H82C         4.8000    -1.0040    -0.8020 hc         1 7QN       0.050200
     37 H91C         3.3020    -2.9480    -0.5020 h1         1 7QN       0.027200
     38 H92C         3.5380    -2.0320     0.9930 h1         1 7QN       0.027200
     39 H231         1.3100    -3.2180     1.6830 h1         1 7QN       0.036700
     40 H232        -0.1640    -2.7270     0.8590 h1         1 7QN       0.036700
     41 H13         -0.5510    -0.3400     2.9120 ha         1 7QN       0.101500
     42 H17         -0.1580     0.0620    -1.3710 ha         1 7QN       0.101500
     43 H14         -2.9480     0.2440     2.7480 ha         1 7QN       0.114000
     44 H16         -2.5500     0.6460    -1.5410 ha         1 7QN       0.114000
     45 H18         -4.8730     0.8410     1.5030 ha         1 7QN       0.190000
     46 H19         -4.7050     1.1570    -1.5510 ha         1 7QN       0.144000
     47 H24          1.9450    -4.6120    -0.2700 hc         1 7QN       0.031700
     48 H251        -0.9220    -5.1460     0.6480 hc         1 7QN       0.034200
     49 H252         0.1940    -6.3340    -0.0630 hc         1 7QN       0.034200
     50 H253         0.5570    -5.6120     1.5160 hc         1 7QN       0.034200
     51 H261         0.9700    -3.2800    -2.1320 hc         1 7QN       0.034200
     52 H262         0.3790    -4.9480    -2.1880 hc         1 7QN       0.034200
     53 H263        -0.6710    -3.6560    -1.5640 hc         1 7QN       0.034200
@<TRIPOS>BOND
     1     1     2 1   
     2     1    28 1   
     3     1    29 1   
     4     1    30 1   
     5     2     3 ar  
     6     2     7 ar  
     7     3     4 ar  
     8     3    27 1   
     9     4     5 ar  
    10     4    31 1   
    11     5     6 ar  
    12     5    33 1   
    13     6     7 ar  
    14     6    11 1   
    15     7     8 1   
    16     8     9 1   
    17     8    35 1   
    18     8    36 1   
    19     9    10 1   
    20     9    37 1   
    21     9    38 1   
    22    10    11 1   
    23    10    23 1   
    24    11    12 1   
    25    11    34 1   
    26    12    13 ar  
    27    12    17 ar  
    28    13    14 ar  
    29    13    41 1   
    30    14    15 ar  
    31    14    43 1   
    32    15    16 ar  
    33    15    18 1   
    34    16    17 ar  
    35    16    44 1   
    36    17    42 1   
    37    18    19 2   
    38    18    45 1   
    39    19    20 1   
    40    19    46 1   
    41    20    21 1   
    42    20    22 1   
    43    23    24 1   
    44    23    39 1   
    45    23    40 1   
    46    24    25 1   
    47    24    26 1   
    48    24    47 1   
    49    25    48 1   
    50    25    49 1   
    51    25    50 1   
    52    26    51 1   
    53    26    52 1   
    54    26    53 1   
    55    27    32 1   
@<TRIPOS>SUBSTRUCTURE
     1 7QN         1 TEMP              0 ****  ****    0 ROOT
