@<TRIPOS>MOLECULE
7QO
   32    33     1     0     0
SMALL
No Charge or Current Charge


@<TRIPOS>ATOM
      1 C01         -0.5520    20.1470   -64.9870 c6         1 7QO      -0.021700
      2 C02          0.1130    21.3040   -65.7860 c6         1 7QO       0.175300
      3 C03          1.5620    21.5400   -65.2620 c6         1 7QO       0.164300
      4 C04          2.3880    20.2250   -65.3290 c6         1 7QO       0.084300
      5 C05          1.6230    19.1170   -64.5280 c6         1 7QO       0.283700
      6 C11          2.9590    17.2840   -63.4700 c          1 7QO       0.721400
      7 C13          3.5780    15.4230   -64.6820 cc         1 7QO       0.786500
      8 C14          2.9350    15.8710   -65.8440 cc         1 7QO      -0.517600
      9 C15          2.2830    17.0800   -65.7970 cd         1 7QO       0.050600
     10 C18         -2.0160    19.9110   -65.4880 c          1 7QO       0.735000
     11 N10          2.2980    17.8000   -64.6040 n          1 7QO      -0.301000
     12 N12          3.6060    16.0510   -63.5620 nd         1 7QO      -0.789100
     13 N16          4.1970    14.2650   -64.7030 nv         1 7QO      -1.048200
     14 O06          0.2930    18.9550   -65.0740 os         1 7QO      -0.426000
     15 O07         -0.6420    22.5230   -65.6960 oh         1 7QO      -0.765000
     16 O08          3.7280    20.4530   -64.8280 oh         1 7QO      -0.721000
     17 O09          2.2160    22.5740   -66.0170 oh         1 7QO      -0.642000
     18 O17          2.9930    17.8750   -62.4030 o          1 7QO      -0.545000
     19 O19         -2.8940    20.1880   -64.6790 o          1 7QO      -0.694000
     20 O20         -2.1890    18.9750   -66.2610 o          1 7QO      -0.694000
     21 H1          -0.6180    20.4400   -63.9290 h1         1 7QO       0.039700
     22 H2           0.1760    20.9920   -66.8400 h1         1 7QO       0.032700
     23 H3           1.4980    21.8420   -64.2050 h1         1 7QO       0.047700
     24 H4           2.4400    19.9100   -66.3820 h1         1 7QO       0.041700
     25 H5           1.5430    19.4240   -63.4740 h2         1 7QO       0.096700
     26 H6           2.9630    15.2690   -66.7450 ha         1 7QO       0.194000
     27 H7           1.7400    17.5440   -66.6200 h4         1 7QO       0.218000
     28 H8           4.3830    13.9030   -63.7780 hn         1 7QO       0.493000
     29 H9           3.8450    13.5960   -65.3740 hn         1 7QO       0.493000
     30 H10         -0.0020    23.2310   -65.9630 ho         1 7QO       0.573000
     31 H11          4.2520    19.6370   -65.0090 ho         1 7QO       0.500000
     32 H12          3.1750    22.4300   -65.8470 ho         1 7QO       0.434000
@<TRIPOS>BOND
     1     1     2 1   
     2     1    10 1   
     3     1    14 1   
     4     1    21 1   
     5     2     3 1   
     6     2    15 1   
     7     2    22 1   
     8     3     4 1   
     9     3    17 1   
    10     3    23 1   
    11     4     5 1   
    12     4    16 1   
    13     4    24 1   
    14     5    11 1   
    15     5    14 1   
    16     5    25 1   
    17     6    11 1   
    18     6    12 1   
    19     6    18 2   
    20     7     8 1   
    21     7    12 2   
    22     7    13 1   
    23     8     9 2   
    24     8    26 1   
    25     9    11 1   
    26     9    27 1   
    27    10    19 1   
    28    10    20 1   
    29    13    28 1   
    30    13    29 1   
    31    15    30 1   
    32    16    31 1   
    33    17    32 1   
@<TRIPOS>SUBSTRUCTURE
     1 7QO         1 TEMP              0 ****  ****    0 ROOT
