@<TRIPOS>MOLECULE
7QO
   32    33     1     0     0
SMALL
bcc


@<TRIPOS>ATOM
      1 C01         -0.3810    20.1980   -64.8790 c6         1 7QO      -0.044900
      2 C02          0.2330    21.2960   -65.7700 c6         1 7QO       0.152100
      3 C03          1.6840    21.5050   -65.3710 c6         1 7QO       0.141100
      4 C04          2.4240    20.1730   -65.4250 c6         1 7QO       0.061100
      5 C05          1.6840    19.1600   -64.5460 c6         1 7QO       0.260500
      6 C11          2.8560    17.2880   -63.4160 c          1 7QO       0.863900
      7 C13          3.4340    15.4040   -64.6510 cc         1 7QO       0.786500
      8 C14          2.8730    15.9410   -65.8510 cc         1 7QO      -0.467600
      9 C15          2.3210    17.1650   -65.7560 cd         1 7QO       0.100600
     10 C18         -1.8570    19.9230   -65.2430 c          1 7QO       0.945600
     11 N10          2.3080    17.8520   -64.5870 n          1 7QO      -0.368000
     12 N12          3.4120    16.0620   -63.5100 nd         1 7QO      -0.789100
     13 N16          3.9990    14.1970   -64.6730 nv         1 7QO      -0.937800
     14 O06          0.3610    19.0010   -64.9700 os         1 7QO      -0.379600
     15 O07         -0.4710    22.4960   -65.6320 oh         1 7QO      -0.642800
     16 O08          3.7340    20.3800   -64.9590 oh         1 7QO      -0.598800
     17 O09          2.2620    22.4510   -66.2330 oh         1 7QO      -0.579800
     18 O17          2.8120    17.9130   -62.3670 o          1 7QO      -0.620500
     19 O19         -2.5380    20.9620   -65.4550 o          1 7QO      -0.799300
     20 O20         -2.2520    18.7580   -65.2780 o          1 7QO      -0.799300
     21 H1          -0.3610    20.5680   -63.8390 h1         1 7QO       0.039700
     22 H2           0.2140    20.9320   -66.8130 h1         1 7QO       0.032700
     23 H3           1.7000    21.8610   -64.3260 h1         1 7QO       0.047700
     24 H4           2.4210    19.8260   -66.4690 h1         1 7QO       0.041700
     25 H5           1.7300    19.4990   -63.5050 h2         1 7QO       0.096700
     26 H6           2.8820    15.3990   -66.7850 ha         1 7QO       0.144000
     27 H7           1.8650    17.6430   -66.6120 h4         1 7QO       0.168000
     28 H8           4.3960    13.8100   -63.8340 hn         1 7QO       0.437800
     29 H9           4.0400    13.6490   -65.5150 hn         1 7QO       0.437800
     30 H10         -1.4110    22.1950   -65.5880 ho         1 7QO       0.474000
     31 H11          4.3130    19.7090   -65.3320 ho         1 7QO       0.401000
     32 H12          3.1840    22.5620   -65.9750 ho         1 7QO       0.395000
@<TRIPOS>BOND
     1     1     2 1   
     2     1    10 1   
     3     1    14 1   
     4     1    21 1   
     5     2     3 1   
     6     2    15 1   
     7     2    22 1   
     8     3     4 1   
     9     3    17 1   
    10     3    23 1   
    11     4     5 1   
    12     4    16 1   
    13     4    24 1   
    14     5    11 1   
    15     5    14 1   
    16     5    25 1   
    17     6    11 1   
    18     6    12 1   
    19     6    18 2   
    20     7     8 1   
    21     7    12 2   
    22     7    13 1   
    23     8     9 2   
    24     8    26 1   
    25     9    11 1   
    26     9    27 1   
    27    10    19 1   
    28    10    20 1   
    29    13    28 1   
    30    13    29 1   
    31    15    30 1   
    32    16    31 1   
    33    17    32 1   
@<TRIPOS>SUBSTRUCTURE
     1 7QO         1 TEMP              0 ****  ****    0 ROOT
