@<TRIPOS>MOLECULE
7QQ
   25    26     1     0     0
SMALL
abcg2


@<TRIPOS>ATOM
      1 CAB          5.2060    -0.8500    -0.0100 c3         1 7QQ      -0.175100
      2 CAK          3.9130    -0.0910    -0.0150 c          1 7QQ       0.608100
      3 OAC          3.8230     1.1200    -0.0170 o          1 7QQ      -0.559100
      4 NAH          2.7950    -0.8800    -0.0150 ns         1 7QQ      -0.408400
      5 CAM          1.5060    -0.4230    -0.0110 cc         1 7QQ       0.450800
      6 SAJ          1.1370     1.2850    -0.0190 ss         1 7QQ       0.116800
      7 NAG          0.5080    -1.2380    -0.0030 nd         1 7QQ      -0.613100
      8 CAN         -0.6800    -0.5470    -0.0010 ca         1 7QQ       0.160400
      9 CAF         -1.9420    -1.1290     0.0100 ca         1 7QQ      -0.113000
     10 CAO         -0.5490     0.8500    -0.0090 ca         1 7QQ      -0.258000
     11 CAE         -1.6650     1.6680    -0.0080 ca         1 7QQ      -0.025000
     12 CAD         -2.9240     1.0870     0.0030 ca         1 7QQ      -0.195000
     13 CAL         -3.0640    -0.3080     0.0120 ca         1 7QQ       0.146100
     14 OAI         -4.2560    -0.9380     0.0240 os         1 7QQ      -0.342100
     15 CAA         -5.4370    -0.1620     0.0300 c3         1 7QQ       0.149900
     16 HAB1         6.0470    -0.1620    -0.0240 hc         1 7QQ       0.070700
     17 HAB2         5.2740    -1.4770     0.8800 hc         1 7QQ       0.070700
     18 HAB3         5.2690    -1.5060    -0.8780 hc         1 7QQ       0.070700
     19 HAH          2.8970    -1.8860    -0.0140 hn         1 7QQ       0.340500
     20 HAF         -2.0470    -2.2070     0.0170 ha         1 7QQ       0.143000
     21 HAE         -1.5720     2.7460    -0.0140 ha         1 7QQ       0.121000
     22 HAD         -3.7870     1.7370     0.0030 ha         1 7QQ       0.118000
     23 HAA1        -5.5180     0.4680    -0.8600 h1         1 7QQ       0.040700
     24 HAA2        -6.2670    -0.8630     0.0380 h1         1 7QQ       0.040700
     25 HAA3        -5.5050     0.4720     0.9180 h1         1 7QQ       0.040700
@<TRIPOS>BOND
     1     1     2 1   
     2     1    16 1   
     3     1    17 1   
     4     1    18 1   
     5     2     3 2   
     6     2     4 1   
     7     4     5 1   
     8     4    19 1   
     9     5     6 1   
    10     5     7 2   
    11     6    10 1   
    12     7     8 1   
    13     8     9 ar  
    14     8    10 ar  
    15     9    13 ar  
    16     9    20 1   
    17    10    11 ar  
    18    11    12 ar  
    19    11    21 1   
    20    12    13 ar  
    21    12    22 1   
    22    13    14 1   
    23    14    15 1   
    24    15    23 1   
    25    15    24 1   
    26    15    25 1   
@<TRIPOS>SUBSTRUCTURE
     1 7QQ         1 TEMP              0 ****  ****    0 ROOT
