@<TRIPOS>MOLECULE
7QQ
   25    26     1     0     0
SMALL
No Charge or Current Charge


@<TRIPOS>ATOM
      1 CAB          5.2540    -0.9630    -0.0160 c3         1 7QQ      -0.175100
      2 CAK          4.0180    -0.0740    -0.0170 c          1 7QQ       0.608100
      3 OAC          4.1020     1.1450    -0.0270 o          1 7QQ      -0.559100
      4 NAH          2.8270    -0.7560    -0.0070 ns         1 7QQ      -0.408400
      5 CAM          1.5460    -0.2590    -0.0050 cc         1 7QQ       0.450800
      6 SAJ          1.0990     1.4730    -0.0160 ss         1 7QQ       0.116800
      7 NAG          0.5590    -1.1600     0.0060 nd         1 7QQ      -0.613100
      8 CAN         -0.6450    -0.4660     0.0060 ca         1 7QQ       0.160400
      9 CAF         -1.9000    -1.0900     0.0160 ca         1 7QQ      -0.113000
     10 CAO         -0.5630     0.9100    -0.0050 ca         1 7QQ      -0.258000
     11 CAE         -1.7050     1.7240    -0.0060 ca         1 7QQ      -0.025000
     12 CAD         -2.9700     1.1060     0.0040 ca         1 7QQ      -0.195000
     13 CAL         -3.0690    -0.3070     0.0150 ca         1 7QQ       0.146100
     14 OAI         -4.2840    -0.9640     0.0250 os         1 7QQ      -0.342100
     15 CAA         -5.5380    -0.2580     0.0250 c3         1 7QQ       0.149900
     16 HAB1         6.1860    -0.3870    -0.0240 hc         1 7QQ       0.070700
     17 HAB2         5.2060    -1.6420     0.8430 hc         1 7QQ       0.070700
     18 HAB3         5.1990    -1.6540    -0.8650 hc         1 7QQ       0.070700
     19 HAH          2.9100    -1.7620    -0.0000 hn         1 7QQ       0.340500
     20 HAF         -1.9690    -2.1730     0.0240 ha         1 7QQ       0.143000
     21 HAE         -1.6170     2.8090    -0.0140 ha         1 7QQ       0.121000
     22 HAD         -3.8540     1.7360     0.0030 ha         1 7QQ       0.118000
     23 HAA1        -5.6330     0.3670    -0.8710 h1         1 7QQ       0.040700
     24 HAA2        -6.3730    -0.9690     0.0340 h1         1 7QQ       0.040700
     25 HAA3        -5.6260     0.3810     0.9130 h1         1 7QQ       0.040700
@<TRIPOS>BOND
     1     1     2 1   
     2     1    16 1   
     3     1    17 1   
     4     1    18 1   
     5     2     3 2   
     6     2     4 1   
     7     4     5 1   
     8     4    19 1   
     9     5     6 1   
    10     5     7 2   
    11     6    10 1   
    12     7     8 1   
    13     8     9 ar  
    14     8    10 ar  
    15     9    13 ar  
    16     9    20 1   
    17    10    11 ar  
    18    11    12 ar  
    19    11    21 1   
    20    12    13 ar  
    21    12    22 1   
    22    13    14 1   
    23    14    15 1   
    24    15    23 1   
    25    15    24 1   
    26    15    25 1   
@<TRIPOS>SUBSTRUCTURE
     1 7QQ         1 TEMP              0 ****  ****    0 ROOT
