@<TRIPOS>MOLECULE
7QR
   31    32     1     0     0
SMALL
abcg2


@<TRIPOS>ATOM
      1 C1          16.0400   -20.3450   -25.9090 ca         1 7QR      -0.204000
      2 C2          15.1700   -20.5330   -26.9550 ca         1 7QR      -0.030000
      3 C3          14.6460   -21.7900   -27.3040 ca         1 7QR      -0.096800
      4 C4          13.7270   -21.9590   -28.4380 ce         1 7QR      -0.159200
      5 C7          10.3280   -21.5970   -29.6040 c6         1 7QR      -0.072400
      6 C8           9.8660   -20.4580   -28.7110 c6         1 7QR       0.158800
      7 C9          12.0750   -20.1740   -27.7690 c6         1 7QR       0.193000
      8 C11         15.9750   -22.7050   -25.4690 ca         1 7QR      -0.115000
      9 C12         16.3770   -23.8290   -24.7040 cg         1 7QR       0.337000
     10 N2          16.7330   -24.7100   -24.0490 n1         1 7QR      -0.463000
     11 C           16.4680   -21.4290   -25.1240 ca         1 7QR       0.378000
     12 N           17.2880   -21.2400   -24.0650 nv         1 7QR      -1.097000
     13 C10         15.0860   -22.8570   -26.5430 ca         1 7QR       0.210000
     14 CL          14.5210   -24.4490   -26.8980 cl         1 7QR      -0.175000
     15 C5          12.6280   -21.2370   -28.6800 c2         1 7QR      -0.088400
     16 N1          10.6690   -20.4410   -27.5020 n7         1 7QR      -0.855400
     17 C6          11.8150   -21.4470   -29.9250 c6         1 7QR      -0.041200
     18 H1          16.4140   -19.3540   -25.6890 ha         1 7QR       0.119000
     19 H2          14.8870   -19.6740   -27.5510 ha         1 7QR       0.118000
     20 H3          13.9860   -22.7380   -29.1500 ha         1 7QR       0.186000
     21 H4           9.7450   -21.6090   -30.5270 hc         1 7QR       0.050200
     22 H5          10.1510   -22.5490   -29.0960 hc         1 7QR       0.050200
     23 H6           9.9270   -19.5120   -29.2750 h1         1 7QR       0.028700
     24 H7           8.8190   -20.5950   -28.4330 h1         1 7QR       0.028700
     25 H8          12.6050   -20.1520   -26.8160 h1         1 7QR       0.036700
     26 H9          12.2360   -19.1920   -28.2470 h1         1 7QR       0.036700
     27 H10         17.7760   -22.0170   -23.6530 hn         1 7QR       0.482500
     28 H11         17.7580   -20.3550   -23.9790 hn         1 7QR       0.482500
     29 H12         10.3200   -19.7330   -26.8690 hn         1 7QR       0.411000
     30 H14         12.1860   -22.3040   -30.4890 hc         1 7QR       0.046200
     31 H15         11.9400   -20.5660   -30.5670 hc         1 7QR       0.046200
@<TRIPOS>BOND
     1     1     2 ar  
     2     1    11 ar  
     3     1    18 1   
     4     2     3 ar  
     5     2    19 1   
     6     3     4 1   
     7     3    13 ar  
     8     4    15 2   
     9     4    20 1   
    10     5     6 1   
    11     5    17 1   
    12     5    21 1   
    13     5    22 1   
    14     6    16 1   
    15     6    23 1   
    16     6    24 1   
    17     7    15 1   
    18     7    16 1   
    19     7    25 1   
    20     7    26 1   
    21     8     9 1   
    22     8    11 ar  
    23     8    13 ar  
    24     9    10 3   
    25    11    12 1   
    26    12    27 1   
    27    12    28 1   
    28    13    14 1   
    29    15    17 1   
    30    16    29 1   
    31    17    30 1   
    32    17    31 1   
@<TRIPOS>SUBSTRUCTURE
     1 7QR         1 TEMP              0 ****  ****    0 ROOT
