@<TRIPOS>MOLECULE
7QR
   31    32     1     0     0
SMALL
No Charge or Current Charge


@<TRIPOS>ATOM
      1 C1          16.1300   -20.3380   -25.9350 ca         1 7QR      -0.204000
      2 C2          15.2650   -20.4840   -27.0290 ca         1 7QR      -0.030000
      3 C3          14.7160   -21.7420   -27.3320 ca         1 7QR      -0.096800
      4 C4          13.8090   -21.8890   -28.5070 ce         1 7QR      -0.159200
      5 C7          10.3260   -21.6400   -29.6070 c6         1 7QR      -0.072400
      6 C8           9.8160   -20.5270   -28.6630 c6         1 7QR       0.158800
      7 C9          12.0820   -20.1700   -27.7370 c6         1 7QR       0.193000
      8 C11         15.9300   -22.7100   -25.4340 ca         1 7QR      -0.115000
      9 C12         16.2620   -23.8500   -24.6280 cg         1 7QR       0.337000
     10 N2          16.5430   -24.7710   -23.9680 n1         1 7QR      -0.463000
     11 C           16.4640   -21.4380   -25.1370 ca         1 7QR       0.378000
     12 N           17.3170   -21.2260   -24.0800 nv         1 7QR      -1.097000
     13 C10         15.0590   -22.8580   -26.5360 ca         1 7QR       0.210000
     14 Cl          14.3670   -24.4420   -26.9300 cl         1 7QR      -0.175000
     15 C5          12.6560   -21.2050   -28.7120 c2         1 7QR      -0.088400
     16 N1          10.6530   -20.4460   -27.4450 n7         1 7QR      -0.855400
     17 C6          11.8130   -21.4200   -29.9660 c6         1 7QR      -0.041200
     18 H1          16.5430   -19.3580   -25.7120 ha         1 7QR       0.119000
     19 H2          15.0230   -19.6210   -27.6450 ha         1 7QR       0.118000
     20 H3          14.1350   -22.6340   -29.2360 ha         1 7QR       0.186000
     21 H4           9.7170   -21.6650   -30.5200 hc         1 7QR       0.050200
     22 H5          10.2050   -22.6170   -29.1200 hc         1 7QR       0.050200
     23 H6           9.8350   -19.5600   -29.1870 h1         1 7QR       0.028700
     24 H7           8.7740   -20.7340   -28.3790 h1         1 7QR       0.028700
     25 H8          12.6380   -20.1750   -26.7890 h1         1 7QR       0.036700
     26 H9          12.1820   -19.1650   -28.1730 h1         1 7QR       0.036700
     27 H10         17.7180   -22.0190   -23.5810 hn         1 7QR       0.482500
     28 H11         17.8020   -20.3340   -23.9970 hn         1 7QR       0.482500
     29 H12         10.2910   -19.6960   -26.8420 hn         1 7QR       0.411000
     30 H14         12.1840   -22.2760   -30.5470 hc         1 7QR       0.046200
     31 H15         11.9070   -20.5400   -30.6160 hc         1 7QR       0.046200
@<TRIPOS>BOND
     1     1     2 ar  
     2     1    11 ar  
     3     1    18 1   
     4     2     3 ar  
     5     2    19 1   
     6     3     4 1   
     7     3    13 ar  
     8     4    15 2   
     9     4    20 1   
    10     5     6 1   
    11     5    17 1   
    12     5    21 1   
    13     5    22 1   
    14     6    16 1   
    15     6    23 1   
    16     6    24 1   
    17     7    15 1   
    18     7    16 1   
    19     7    25 1   
    20     7    26 1   
    21     8     9 1   
    22     8    11 ar  
    23     8    13 ar  
    24     9    10 3   
    25    11    12 1   
    26    12    27 1   
    27    12    28 1   
    28    13    14 1   
    29    15    17 1   
    30    16    29 1   
    31    17    30 1   
    32    17    31 1   
@<TRIPOS>SUBSTRUCTURE
     1 7QR         1 TEMP              0 ****  ****    0 ROOT
