@<TRIPOS>MOLECULE
7QS
   20    21     1     0     0
SMALL
bcc


@<TRIPOS>ATOM
      1 C1           3.6840     0.4720    -0.6320 ca         1 7QS      -0.112000
      2 C2           3.4950    -0.1230     0.6060 ca         1 7QS      -0.125000
      3 C6           2.5830     0.8140    -1.4090 ca         1 7QS      -0.125000
      4 C3           2.2090    -0.3820     1.0650 ca         1 7QS      -0.102500
      5 C5           1.3010     0.5610    -0.9490 ca         1 7QS      -0.102500
      6 C4           1.1080    -0.0430     0.2910 ca         1 7QS      -0.080300
      7 C8          -0.9910    -1.3350    -0.1360 c          1 7QS       0.718500
      8 C11         -2.5730     0.4170    -0.1600 c          1 7QS       0.739100
      9 C7          -0.2770    -0.3550     0.7860 c5         1 7QS      -0.030300
     10 N10         -2.1840    -0.8340    -0.5730 ns         1 7QS      -0.618500
     11 O9          -0.5440    -2.4100    -0.4390 o          1 7QS      -0.549500
     12 O12         -3.5910     0.9700    -0.4710 o          1 7QS      -0.537500
     13 S13         -1.3500     1.1100     0.9070 ss         1 7QS      -0.219700
     14 H1           4.6840     0.6710    -0.9930 ha         1 7QS       0.135000
     15 H2           4.3480    -0.3870     1.2190 ha         1 7QS       0.136000
     16 H3           2.7250     1.2810    -2.3750 ha         1 7QS       0.136000
     17 H4           2.0660    -0.8500     2.0320 ha         1 7QS       0.134000
     18 H5           0.4500     0.8410    -1.5610 ha         1 7QS       0.134000
     19 H6          -0.2230    -0.8210     1.7730 h1         1 7QS       0.115700
     20 H7          -2.7740    -1.3630    -1.2050 hn         1 7QS       0.353500
@<TRIPOS>BOND
     1     1     2 ar  
     2     1     3 ar  
     3     1    14 1   
     4     2     4 ar  
     5     2    15 1   
     6     3     5 ar  
     7     3    16 1   
     8     4     6 ar  
     9     4    17 1   
    10     5     6 ar  
    11     5    18 1   
    12     6     9 1   
    13     7     9 1   
    14     7    10 1   
    15     7    11 2   
    16     8    10 1   
    17     8    12 2   
    18     8    13 1   
    19     9    13 1   
    20     9    19 1   
    21    10    20 1   
@<TRIPOS>SUBSTRUCTURE
     1 7QS         1 TEMP              0 ****  ****    0 ROOT
