@<TRIPOS>MOLECULE
7QS
   20    21     1     0     0
SMALL
No Charge or Current Charge


@<TRIPOS>ATOM
      1 C1           3.7430     0.4970    -0.6220 ca         1 7QS      -0.094000
      2 C2           3.5410    -0.1130     0.6260 ca         1 7QS      -0.107000
      3 C6           2.6400     0.8320    -1.4230 ca         1 7QS      -0.107000
      4 C3           2.2360    -0.3890     1.0730 ca         1 7QS      -0.084500
      5 C5           1.3360     0.5560    -0.9770 ca         1 7QS      -0.084500
      6 C4           1.1220    -0.0580     0.2750 ca         1 7QS      -0.080300
      7 C8          -1.0280    -1.3670    -0.1570 c          1 7QS       0.576000
      8 C11         -2.6430     0.4130    -0.1330 c          1 7QS       0.596600
      9 C7          -0.2930    -0.3610     0.7630 c5         1 7QS       0.017600
     10 N10         -2.2200    -0.8170    -0.5050 ns         1 7QS      -0.484500
     11 O9          -0.6580    -2.4670    -0.5360 o          1 7QS      -0.474000
     12 O12         -3.7030     0.9150    -0.4630 o          1 7QS      -0.462000
     13 S13         -1.3540     1.1760     0.8710 ss         1 7QS      -0.267600
     14 H1           4.7530     0.7110    -0.9670 ha         1 7QS       0.117000
     15 H2           4.3940    -0.3730     1.2490 ha         1 7QS       0.118000
     16 H3           2.7940     1.3050    -2.3910 ha         1 7QS       0.118000
     17 H4           2.0940    -0.8620     2.0420 ha         1 7QS       0.116000
     18 H5           0.4900     0.8210    -1.6080 ha         1 7QS       0.116000
     19 H6          -0.2710    -0.8250     1.7570 h1         1 7QS       0.115700
     20 H7          -2.8290    -1.3590    -1.0980 hn         1 7QS       0.353500
@<TRIPOS>BOND
     1     1     2 ar  
     2     1     3 ar  
     3     1    14 1   
     4     2     4 ar  
     5     2    15 1   
     6     3     5 ar  
     7     3    16 1   
     8     4     6 ar  
     9     4    17 1   
    10     5     6 ar  
    11     5    18 1   
    12     6     9 1   
    13     7     9 1   
    14     7    10 1   
    15     7    11 2   
    16     8    10 1   
    17     8    12 2   
    18     8    13 1   
    19     9    13 1   
    20     9    19 1   
    21    10    20 1   
@<TRIPOS>SUBSTRUCTURE
     1 7QS         1 TEMP              0 ****  ****    0 ROOT
