@<TRIPOS>MOLECULE
7QU
   57    61     1     0     0
SMALL
No Charge or Current Charge


@<TRIPOS>ATOM
      1 C1         -24.2870    87.6320    -2.7880 c          1 7QU       0.608100
      2 C2         -26.2060    89.1470    -3.3540 c6         1 7QU       0.098000
      3 C3         -26.5730    90.5950    -3.7760 c6         1 7QU       0.151800
      4 C11        -24.0230    97.7710    -3.9720 cc         1 7QU      -0.062400
      5 C12        -25.2620    98.4600    -4.1830 ca         1 7QU      -0.245800
      6 C13        -25.5710    99.7820    -4.5230 ca         1 7QU       0.440900
      7 C14        -27.7810    99.2040    -4.5270 ca         1 7QU       0.183900
      8 C15        -26.2740    97.5360    -4.0540 ca         1 7QU       0.156500
      9 C16        -22.6480    98.2600    -3.9020 ca         1 7QU       0.034200
     10 C17        -22.3240    99.3700    -3.1000 ca         1 7QU      -0.165000
     11 C18        -20.9990    99.8300    -3.0230 ca         1 7QU      -0.059000
     12 C19        -19.9850    99.1770    -3.7440 ca         1 7QU       0.042000
     13 C20        -20.3000    98.0530    -4.5440 ca         1 7QU       0.315000
     14 C21        -21.6260    97.6020    -4.6130 ca         1 7QU      -0.180000
     15 N          -24.7830    88.9470    -2.9370 n          1 7QU      -0.417800
     16 C          -22.8410    87.4360    -2.3260 c3         1 7QU      -0.176100
     17 O          -24.9750    86.6620    -3.0780 o          1 7QU      -0.604100
     18 C10        -24.3250    96.4440    -3.7270 cd         1 7QU      -0.163100
     19 C4         -24.6400    91.5020    -2.6300 c6         1 7QU       0.151800
     20 C5         -24.1930    90.0880    -2.1660 c6         1 7QU       0.098000
     21 C6         -26.6380    92.9640    -3.1130 cy         1 7QU       0.172500
     22 C7         -26.0360    93.7390    -4.3330 cy         1 7QU      -0.116900
     23 C8         -26.4490    95.0340    -3.5510 cy         1 7QU       0.064300
     24 C9         -26.1870    94.1940    -2.2530 cy         1 7QU      -0.116900
     25 N1         -26.1190    91.6060    -2.7860 n3         1 7QU      -0.712600
     26 N2         -25.7320    96.2800    -3.7710 na         1 7QU      -0.164400
     27 N4         -26.8430   100.1650    -4.6950 nb         1 7QU      -0.307000
     28 N5         -27.5620    97.9030    -4.2200 nb         1 7QU      -0.239000
     29 N6         -19.3310    97.3860    -5.2610 nv         1 7QU      -1.072000
     30 Cl         -18.3260    99.7790    -3.6210 cl         1 7QU      -0.212000
     31 H1         -26.4420    88.4750    -4.1910 h1         1 7QU       0.060200
     32 H2         -26.8530    88.8570    -2.5150 h1         1 7QU       0.060200
     33 H3         -27.6630    90.6500    -3.9080 h1         1 7QU       0.040700
     34 H4         -26.1210    90.8000    -4.7580 h1         1 7QU       0.040700
     35 H5         -28.8190    99.5040    -4.6620 h5         1 7QU       0.044100
     36 H6         -23.1010    99.8690    -2.5250 ha         1 7QU       0.126000
     37 H7         -20.7560   100.6880    -2.4010 ha         1 7QU       0.127000
     38 H8         -21.8720    96.7410    -5.2290 ha         1 7QU       0.117000
     39 H9         -22.5340    86.3840    -2.3460 hc         1 7QU       0.059700
     40 H10        -22.1780    88.0600    -2.9350 hc         1 7QU       0.059700
     41 H11        -22.7220    87.8600    -1.3230 hc         1 7QU       0.059700
     42 H12        -23.6540    95.6210    -3.5010 h4         1 7QU       0.215000
     43 H13        -24.2670    92.2240    -1.8920 h1         1 7QU       0.040700
     44 H14        -24.1380    91.7220    -3.5830 h1         1 7QU       0.040700
     45 H15        -23.0960    90.0560    -2.2180 h1         1 7QU       0.060200
     46 H16        -24.4700    89.9670    -1.1090 h1         1 7QU       0.060200
     47 H17        -27.7350    92.9280    -3.1760 h1         1 7QU       0.070700
     48 H18        -26.5390    93.5820    -5.2920 hc         1 7QU       0.063950
     49 H19        -24.9570    93.6270    -4.4830 hc         1 7QU       0.063950
     50 H20        -27.5130    95.2700    -3.6800 h1         1 7QU       0.105700
     51 H21        -25.1440    94.1990    -1.9220 hc         1 7QU       0.063950
     52 H22        -26.8240    94.4320    -1.3960 hc         1 7QU       0.063950
     53 H24        -24.9200   101.5800    -5.2330 hn         1 7QU       0.504000
     54 H25        -23.6710   100.4460    -4.8370 hn         1 7QU       0.504000
     55 H26        -18.3510    97.6190    -5.1040 hn         1 7QU       0.461500
     56 H27        -19.5390    96.4840    -5.6850 hn         1 7QU       0.461500
     57 N3         -24.6380   100.7390    -4.7360 nv         1 7QU      -1.077900
@<TRIPOS>BOND
     1     1    15 1   
     2     1    16 1   
     3     1    17 2   
     4     2     3 1   
     5     2    15 1   
     6     2    31 1   
     7     2    32 1   
     8     3    25 1   
     9     3    33 1   
    10     3    34 1   
    11     4     5 1   
    12     4     9 1   
    13     4    18 2   
    14     5     6 ar  
    15     5     8 ar  
    16     6    27 ar  
    17     6    57 1   
    18     7    27 ar  
    19     7    28 ar  
    20     7    35 1   
    21     8    26 1   
    22     8    28 ar  
    23     9    10 ar  
    24     9    14 ar  
    25    10    11 ar  
    26    10    36 1   
    27    11    12 ar  
    28    11    37 1   
    29    12    13 ar  
    30    12    30 1   
    31    13    14 ar  
    32    13    29 1   
    33    14    38 1   
    34    15    20 1   
    35    16    39 1   
    36    16    40 1   
    37    16    41 1   
    38    18    26 1   
    39    18    42 1   
    40    19    20 1   
    41    19    25 1   
    42    19    43 1   
    43    19    44 1   
    44    20    45 1   
    45    20    46 1   
    46    21    22 1   
    47    21    24 1   
    48    21    25 1   
    49    21    47 1   
    50    22    23 1   
    51    22    48 1   
    52    22    49 1   
    53    23    24 1   
    54    23    26 1   
    55    23    50 1   
    56    24    51 1   
    57    24    52 1   
    58    29    55 1   
    59    29    56 1   
    60    53    57 1   
    61    54    57 1   
@<TRIPOS>SUBSTRUCTURE
     1 7QU         1 TEMP              0 ****  ****    0 ROOT
