@<TRIPOS>MOLECULE
7QU
   57    61     1     0     0
SMALL
bcc


@<TRIPOS>ATOM
      1 C1         -23.9240    88.3540    -3.2880 c          1 7QU       0.675100
      2 C2         -26.1170    89.3180    -2.7970 c6         1 7QU       0.098000
      3 C3         -26.6460    90.6130    -3.3910 c6         1 7QU       0.151800
      4 C11        -24.0310    97.4990    -3.9050 cc         1 7QU      -0.062400
      5 C12        -25.1830    98.2700    -4.2730 ca         1 7QU      -0.376400
      6 C13        -25.4620    99.5620    -4.7720 ca         1 7QU       0.769200
      7 C14        -27.6890    99.0040    -4.8220 ca         1 7QU       0.709900
      8 C15        -26.2940    97.4270    -4.1560 ca         1 7QU       0.484800
      9 C16        -22.6290    97.9170    -3.8070 ca         1 7QU       0.034200
     10 C17        -22.2790    99.0880    -3.1300 ca         1 7QU      -0.183000
     11 C18        -20.9470    99.4560    -3.0380 ca         1 7QU      -0.077000
     12 C19        -19.9630    98.6650    -3.6030 ca         1 7QU      -0.049600
     13 C20        -20.2720    97.4730    -4.2730 ca         1 7QU       0.176600
     14 C21        -21.6270    97.1300    -4.3630 ca         1 7QU      -0.198000
     15 N          -24.6690    89.3420    -2.7420 n          1 7QU      -0.484800
     16 C          -22.4210    88.4810    -3.1810 c3         1 7QU      -0.176100
     17 O          -24.4330    87.3910    -3.8490 o          1 7QU      -0.604100
     18 C10        -24.5030    96.2510    -3.6030 cd         1 7QU      -0.113100
     19 C4         -24.7040    91.7780    -2.6660 c6         1 7QU       0.151800
     20 C5         -24.1500    90.5030    -2.0500 c6         1 7QU       0.098000
     21 C6         -26.7960    92.9840    -3.0270 cy         1 7QU       0.172500
     22 C7         -26.4190    93.7660    -4.3140 cy         1 7QU      -0.116900
     23 C8         -26.7010    95.0510    -3.5190 cy         1 7QU       0.035000
     24 C9         -26.5330    94.2620    -2.2100 cy         1 7QU      -0.116900
     25 N1         -26.1520    91.7560    -2.6440 n3         1 7QU      -0.712600
     26 N2         -25.8660    96.2050    -3.7460 na         1 7QU      -0.135100
     27 N4         -26.7310    99.9060    -5.0170 nb         1 7QU      -0.833000
     28 N5         -27.5610    97.7580    -4.4160 nb         1 7QU      -0.765000
     29 N6         -19.3120    96.7060    -4.8770 nv         1 7QU      -0.823200
     30 CL         -18.3010    99.1610    -3.4860 cl         1 7QU      -0.120400
     31 H1         -26.4470    88.4710    -3.3930 h1         1 7QU       0.060200
     32 H2         -26.5150    89.1930    -1.7840 h1         1 7QU       0.060200
     33 H3         -27.7370    90.5980    -3.3450 h1         1 7QU       0.040700
     34 H4         -26.3640    90.6630    -4.4560 h1         1 7QU       0.040700
     35 H5         -28.6990    99.3400    -5.0350 h5         1 7QU       0.044100
     36 H6         -23.0340    99.6930    -2.6460 ha         1 7QU       0.144000
     37 H7         -20.6690   100.3600    -2.5120 ha         1 7QU       0.145000
     38 H8         -21.8960    96.2270    -4.8990 ha         1 7QU       0.135000
     39 H9         -21.9600    87.6200    -3.6590 hc         1 7QU       0.059700
     40 H10        -22.0550    89.3830    -3.6720 hc         1 7QU       0.059700
     41 H11        -22.0890    88.5150    -2.1430 hc         1 7QU       0.059700
     42 H12        -23.9500    95.3890    -3.2610 h4         1 7QU       0.165000
     43 H13        -24.3320    92.6250    -2.0880 h1         1 7QU       0.040700
     44 H14        -24.3020    91.8780    -3.6870 h1         1 7QU       0.040700
     45 H15        -23.0650    90.5290    -2.0900 h1         1 7QU       0.060200
     46 H16        -24.4390    90.4540    -0.9940 h1         1 7QU       0.060200
     47 H17        -27.8730    92.7920    -3.0360 h1         1 7QU       0.070700
     48 H18        -27.0020    93.5950    -5.2180 hc         1 7QU       0.063950
     49 H19        -25.3570    93.6760    -4.5550 hc         1 7QU       0.063950
     50 H20        -27.7320    95.3770    -3.6510 h1         1 7QU       0.105700
     51 H21        -25.5090    94.3160    -1.8390 hc         1 7QU       0.063950
     52 H22        -27.2130    94.4910    -1.3910 hc         1 7QU       0.063950
     53 H24        -24.7860   101.3800    -5.3740 hn         1 7QU       0.448800
     54 H25        -23.5420   100.2930    -4.8760 hn         1 7QU       0.448800
     55 H26        -18.3760    96.7680    -4.5100 hn         1 7QU       0.406300
     56 H27        -19.5790    95.7590    -5.0910 hn         1 7QU       0.406300
     57 N3         -24.5170   100.4710    -5.0400 nv         1 7QU      -0.967500
@<TRIPOS>BOND
     1     1    15 1   
     2     1    16 1   
     3     1    17 2   
     4     2     3 1   
     5     2    15 1   
     6     2    31 1   
     7     2    32 1   
     8     3    25 1   
     9     3    33 1   
    10     3    34 1   
    11     4     5 1   
    12     4     9 1   
    13     4    18 2   
    14     5     6 ar  
    15     5     8 ar  
    16     6    27 ar  
    17     6    57 1   
    18     7    27 ar  
    19     7    28 ar  
    20     7    35 1   
    21     8    26 1   
    22     8    28 ar  
    23     9    10 ar  
    24     9    14 ar  
    25    10    11 ar  
    26    10    36 1   
    27    11    12 ar  
    28    11    37 1   
    29    12    13 ar  
    30    12    30 1   
    31    13    14 ar  
    32    13    29 1   
    33    14    38 1   
    34    15    20 1   
    35    16    39 1   
    36    16    40 1   
    37    16    41 1   
    38    18    26 1   
    39    18    42 1   
    40    19    20 1   
    41    19    25 1   
    42    19    43 1   
    43    19    44 1   
    44    20    45 1   
    45    20    46 1   
    46    21    22 1   
    47    21    24 1   
    48    21    25 1   
    49    21    47 1   
    50    22    23 1   
    51    22    48 1   
    52    22    49 1   
    53    23    24 1   
    54    23    26 1   
    55    23    50 1   
    56    24    51 1   
    57    24    52 1   
    58    29    55 1   
    59    29    56 1   
    60    53    57 1   
    61    54    57 1   
@<TRIPOS>SUBSTRUCTURE
     1 7QU         1 TEMP              0 ****  ****    0 ROOT
