@<TRIPOS>MOLECULE
7QV
   28    29     1     0     0
SMALL
No Charge or Current Charge


@<TRIPOS>ATOM
      1 C17         -0.3380     1.2670    -0.0410 ca         1 7QV      -0.008000
      2 C16         -1.6830     1.6280     0.1320 ca         1 7QV      -0.240000
      3 C12         -2.3380    -0.6950    -0.1210 ca         1 7QV      -0.243000
      4 C8           0.0230    -0.0790    -0.2630 ca         1 7QV      -0.182300
      5 C13         -2.6880     0.6440     0.0900 ca         1 7QV       0.197100
      6 C9          -0.9880    -1.0630    -0.2950 ca         1 7QV       0.208100
      7 C2           2.2460    -0.6230     0.9040 c          1 7QV       0.548000
      8 C4           3.3100     0.9420    -0.4190 c          1 7QV       0.702100
      9 C7           1.4950    -0.4720    -0.4380 c5         1 7QV       0.147600
     10 C15         -4.4930     2.2820     0.4760 c3         1 7QV       0.147900
     11 C11         -1.5660    -3.4570    -0.5350 c3         1 7QV       0.149900
     12 N3           3.2560     0.2440     0.7280 ns         1 7QV      -0.506500
     13 O6           4.1360     1.7860    -0.7130 o          1 7QV      -0.495000
     14 O5           2.2210     0.5720    -1.1630 os         1 7QV      -0.409100
     15 O14         -4.0250     0.9400     0.2530 os         1 7QV      -0.339100
     16 O10         -0.6140    -2.3780    -0.4950 os         1 7QV      -0.342100
     17 H1           0.4260     2.0420    -0.0010 ha         1 7QV       0.123000
     18 H2          -1.9220     2.6740     0.2980 ha         1 7QV       0.125000
     19 H3          -3.1320    -1.4330    -0.1450 ha         1 7QV       0.136000
     20 H4           1.6130    -1.4170    -0.9850 h1         1 7QV       0.117700
     21 H5          -4.0620     2.6970     1.3960 h1         1 7QV       0.044033
     22 H6          -4.2240     2.9340    -0.3650 h1         1 7QV       0.044033
     23 H7          -5.5850     2.2920     0.5780 h1         1 7QV       0.044033
     24 H8          -2.2850    -3.3120    -1.3510 h1         1 7QV       0.046033
     25 H9          -1.0520    -4.4110    -0.7020 h1         1 7QV       0.046033
     26 H10         -2.1150    -3.5280     0.4120 h1         1 7QV       0.046033
     27 H11          3.9510     0.3860     1.4440 hn         1 7QV       0.362500
     28 O1           2.0380    -1.3080     1.8940 o          1 7QV      -0.470000
@<TRIPOS>BOND
     1     1     2 ar  
     2     1     4 ar  
     3     1    17 1   
     4     2     5 ar  
     5     2    18 1   
     6     3     5 ar  
     7     3     6 ar  
     8     3    19 1   
     9     4     6 ar  
    10     4     9 1   
    11     5    15 1   
    12     6    16 1   
    13     7     9 1   
    14     7    12 1   
    15     7    28 2   
    16     8    12 1   
    17     8    13 2   
    18     8    14 1   
    19     9    14 1   
    20     9    20 1   
    21    10    15 1   
    22    10    21 1   
    23    10    22 1   
    24    10    23 1   
    25    11    16 1   
    26    11    24 1   
    27    11    25 1   
    28    11    26 1   
    29    12    27 1   
@<TRIPOS>SUBSTRUCTURE
     1 7QV         1 TEMP              0 ****  ****    0 ROOT
