@<TRIPOS>MOLECULE
7QV
   28    29     1     0     0
SMALL
bcc


@<TRIPOS>ATOM
      1 C17         -0.3600     1.2670    -0.1320 ca         1 7QV      -0.026000
      2 C16         -1.6840     1.6390     0.0640 ca         1 7QV      -0.258000
      3 C12         -2.3100    -0.6880    -0.0940 ca         1 7QV      -0.261000
      4 C8           0.0130    -0.0520    -0.3130 ca         1 7QV      -0.182300
      5 C13         -2.6630     0.6520     0.0830 ca         1 7QV       0.197100
      6 C9          -0.9840    -1.0410    -0.2860 ca         1 7QV       0.208100
      7 C2           2.1560    -0.6830     0.8310 c          1 7QV       0.690500
      8 C4           3.2430     0.9410    -0.3330 c          1 7QV       0.844600
      9 C7           1.4480    -0.4520    -0.4970 c5         1 7QV       0.124400
     10 C15         -4.4000     2.2150     0.4900 c3         1 7QV       0.124700
     11 C11         -1.5230    -3.3490    -0.4730 c3         1 7QV       0.126700
     12 N3           3.2070     0.1860     0.8150 ns         1 7QV      -0.640500
     13 O6           4.0360     1.7840    -0.6310 o          1 7QV      -0.570500
     14 O5           2.2150     0.5830    -1.1090 os         1 7QV      -0.385900
     15 O14         -3.9730     0.8850     0.2650 os         1 7QV      -0.315900
     16 O10         -0.5670    -2.3050    -0.4560 os         1 7QV      -0.318900
     17 H1           0.3880     2.0500    -0.1490 ha         1 7QV       0.141000
     18 H2          -1.9210     2.6860     0.1950 ha         1 7QV       0.143000
     19 H3          -3.0950    -1.4320    -0.0720 ha         1 7QV       0.154000
     20 H4           1.5370    -1.3530    -1.1110 h1         1 7QV       0.117700
     21 H5          -3.9450     2.6410     1.3880 h1         1 7QV       0.044033
     22 H6          -4.1800     2.8650    -0.3600 h1         1 7QV       0.044033
     23 H7          -5.4770     2.1720     0.6290 h1         1 7QV       0.044033
     24 H8          -2.2540    -3.2160    -1.2750 h1         1 7QV       0.046033
     25 H9          -0.9720    -4.2690    -0.6450 h1         1 7QV       0.046033
     26 H10         -2.0520    -3.4260     0.4800 h1         1 7QV       0.046033
     27 H11          3.8730     0.3030     1.5670 hn         1 7QV       0.362500
     28 O1           1.8480    -1.4500     1.7020 o          1 7QV      -0.545500
@<TRIPOS>BOND
     1     1     2 ar  
     2     1     4 ar  
     3     1    17 1   
     4     2     5 ar  
     5     2    18 1   
     6     3     5 ar  
     7     3     6 ar  
     8     3    19 1   
     9     4     6 ar  
    10     4     9 1   
    11     5    15 1   
    12     6    16 1   
    13     7     9 1   
    14     7    12 1   
    15     7    28 2   
    16     8    12 1   
    17     8    13 2   
    18     8    14 1   
    19     9    14 1   
    20     9    20 1   
    21    10    15 1   
    22    10    21 1   
    23    10    22 1   
    24    10    23 1   
    25    11    16 1   
    26    11    24 1   
    27    11    25 1   
    28    11    26 1   
    29    12    27 1   
@<TRIPOS>SUBSTRUCTURE
     1 7QV         1 TEMP              0 ****  ****    0 ROOT
