@<TRIPOS>MOLECULE
7QW
   45    48     1     0     0
SMALL
abcg2


@<TRIPOS>ATOM
      1 O           17.9620   -25.6240   -24.3720 oh         1 7QW      -0.647300
      2 C14         16.8170   -24.9440   -24.3390 ca         1 7QW       0.609300
      3 N2          16.6300   -24.0660   -23.4000 nb         1 7QW      -0.781000
      4 C15         15.4620   -23.3810   -23.3830 ca         1 7QW       0.371900
      5 C16         14.4700   -23.5520   -24.2990 ca         1 7QW      -0.188000
      6 C17         14.6560   -24.5030   -25.3340 ca         1 7QW       0.013000
      7 C13         15.8620   -25.2360   -25.3600 ca         1 7QW      -0.106000
      8 C12         16.0680   -26.1980   -26.3680 ca         1 7QW      -0.058000
      9 C11         15.1060   -26.4180   -27.3160 ca         1 7QW      -0.119000
     10 C18         13.6870   -24.7450   -26.3290 ca         1 7QW      -0.108000
     11 C10         13.8950   -25.6850   -27.3140 cp         1 7QW      -0.001000
     12 C8          12.8800   -25.9360   -28.3570 cp         1 7QW      -0.050000
     13 C7          12.6010   -27.2390   -28.7750 ca         1 7QW      -0.095000
     14 C6          11.6430   -27.4680   -29.7480 ca         1 7QW      -0.114000
     15 C5          10.9580   -26.4040   -30.3210 ca         1 7QW      -0.103000
     16 C9          12.1880   -24.8780   -28.9450 ca         1 7QW      -0.075000
     17 C4          11.2300   -25.0980   -29.9290 ca         1 7QW      -0.086300
     18 C3          10.5310   -23.9370   -30.5890 c3         1 7QW       0.217100
     19 N1          10.1280   -22.9220   -29.6480 n3         1 7QW      -0.724600
     20 C2           9.0780   -23.3240   -28.7290 c5         1 7QW       0.158800
     21 C1           8.7250   -22.0100   -28.0460 c5         1 7QW      -0.119400
     22 C19          9.6140   -21.7210   -30.2800 c5         1 7QW       0.157800
     23 C            8.9340   -20.9360   -29.1450 c5         1 7QW       0.154500
     24 N            9.7100   -19.7660   -28.7610 n8         1 7QW      -0.985200
     25 H1          15.3530   -22.6630   -22.5790 h4         1 7QW       0.018100
     26 H2          13.5570   -22.9740   -24.2410 ha         1 7QW       0.126000
     27 H4          16.9890   -26.7640   -26.4020 ha         1 7QW       0.130000
     28 H5          15.2860   -27.1480   -28.0950 ha         1 7QW       0.119000
     29 H6          12.7580   -24.1890   -26.2930 ha         1 7QW       0.122000
     30 H7          13.1160   -28.0770   -28.3210 ha         1 7QW       0.116000
     31 H8          11.4210   -28.4820   -30.0550 ha         1 7QW       0.114000
     32 H9          10.2070   -26.5920   -31.0790 ha         1 7QW       0.111000
     33 H10         12.4060   -23.8600   -28.6440 ha         1 7QW       0.131000
     34 H11         11.2150   -23.4760   -31.3090 h1         1 7QW       0.039700
     35 H12          9.6770   -24.3130   -31.1780 h1         1 7QW       0.039700
     36 H14          8.2060   -23.7310   -29.2700 h1         1 7QW       0.041200
     37 H15          9.4230   -24.0910   -28.0340 h1         1 7QW       0.041200
     38 H16          9.4160   -21.8230   -27.2210 hc         1 7QW       0.047700
     39 H17          7.7160   -22.0060   -27.6340 hc         1 7QW       0.047700
     40 H18          8.8730   -21.9640   -31.0610 h1         1 7QW       0.046700
     41 H19         10.4130   -21.1480   -30.7550 h1         1 7QW       0.046700
     42 H20          7.9660   -20.5720   -29.4940 h1         1 7QW       0.061700
     43 H21          9.2440   -19.2930   -27.9960 hn         1 7QW       0.395500
     44 H22         10.6040   -20.0670   -28.3880 hn         1 7QW       0.395500
     45 H3          18.5160   -25.3380   -23.6310 ho         1 7QW       0.487000
@<TRIPOS>BOND
     1     1     2 1   
     2     1    45 1   
     3     2     3 ar  
     4     2     7 ar  
     5     3     4 ar  
     6     4     5 ar  
     7     4    25 1   
     8     5     6 ar  
     9     5    26 1   
    10     6     7 ar  
    11     6    10 ar  
    12     7     8 ar  
    13     8     9 ar  
    14     8    27 1   
    15     9    11 ar  
    16     9    28 1   
    17    10    11 ar  
    18    10    29 1   
    19    11    12 1   
    20    12    13 ar  
    21    12    16 ar  
    22    13    14 ar  
    23    13    30 1   
    24    14    15 ar  
    25    14    31 1   
    26    15    17 ar  
    27    15    32 1   
    28    16    17 ar  
    29    16    33 1   
    30    17    18 1   
    31    18    19 1   
    32    18    34 1   
    33    18    35 1   
    34    19    20 1   
    35    19    22 1   
    36    20    21 1   
    37    20    36 1   
    38    20    37 1   
    39    21    23 1   
    40    21    38 1   
    41    21    39 1   
    42    22    23 1   
    43    22    40 1   
    44    22    41 1   
    45    23    24 1   
    46    23    42 1   
    47    24    43 1   
    48    24    44 1   
@<TRIPOS>SUBSTRUCTURE
     1 7QW         1 TEMP              0 ****  ****    0 ROOT
