@<TRIPOS>MOLECULE
7QW
   45    48     1     0     0
SMALL
No Charge or Current Charge


@<TRIPOS>ATOM
      1 O           17.9990   -26.0340   -24.0340 oh         1 7QW      -0.647300
      2 C14         16.9710   -25.2020   -24.2490 ca         1 7QW       0.609300
      3 N2          16.9750   -24.1640   -23.4090 nb         1 7QW      -0.781000
      4 C15         15.9750   -23.2610   -23.5410 ca         1 7QW       0.371900
      5 C16         14.9610   -23.3770   -24.5070 ca         1 7QW      -0.188000
      6 C17         14.9700   -24.4740   -25.3840 ca         1 7QW       0.013000
      7 C13         16.0030   -25.4190   -25.2550 ca         1 7QW      -0.106000
      8 C12         16.0380   -26.5320   -26.1190 ca         1 7QW      -0.058000
      9 C11         15.0430   -26.6900   -27.1000 ca         1 7QW      -0.119000
     10 C18         13.9770   -24.6340   -26.3670 ca         1 7QW      -0.108000
     11 C10         13.9940   -25.7470   -27.2450 cp         1 7QW      -0.001000
     12 C8          12.9370   -25.9200   -28.2930 cp         1 7QW      -0.050000
     13 C7          12.4620   -27.2070   -28.6490 ca         1 7QW      -0.095000
     14 C6          11.4670   -27.3660   -29.6270 ca         1 7QW      -0.114000
     15 C5          10.9250   -26.2430   -30.2720 ca         1 7QW      -0.103000
     16 C9          12.3760   -24.8000   -28.9590 ca         1 7QW      -0.075000
     17 C4          11.3790   -24.9520   -29.9410 ca         1 7QW      -0.086300
     18 C3          10.7980   -23.7240   -30.6370 c3         1 7QW       0.217100
     19 N1          10.0930   -22.8140   -29.7090 n3         1 7QW      -0.724600
     20 C2           8.9300   -23.3790   -28.9960 c5         1 7QW       0.158800
     21 C1           8.5160   -22.1380   -28.1750 c5         1 7QW      -0.119400
     22 C19          9.5610   -21.5670   -30.3210 c5         1 7QW       0.157800
     23 C            8.5400   -21.0160   -29.2540 c5         1 7QW       0.154500
     24 N            8.8820   -19.7010   -28.6740 n8         1 7QW      -0.985200
     25 H1          15.9880   -22.4190   -22.8510 h4         1 7QW       0.018100
     26 H2          14.1840   -22.6200   -24.5650 ha         1 7QW       0.126000
     27 H4          16.8310   -27.2730   -26.0370 ha         1 7QW       0.130000
     28 H5          15.0960   -27.5480   -27.7650 ha         1 7QW       0.119000
     29 H6          13.1800   -23.8990   -26.4400 ha         1 7QW       0.122000
     30 H7          12.8570   -28.0900   -28.1530 ha         1 7QW       0.116000
     31 H8          11.1120   -28.3620   -29.8830 ha         1 7QW       0.114000
     32 H9          10.1530   -26.3760   -31.0260 ha         1 7QW       0.111000
     33 H10         12.7230   -23.7990   -28.7180 ha         1 7QW       0.131000
     34 H11         11.6220   -23.1870   -31.1250 h1         1 7QW       0.039700
     35 H12         10.1140   -24.0500   -31.4330 h1         1 7QW       0.039700
     36 H14          8.1380   -23.7010   -29.6880 h1         1 7QW       0.041200
     37 H15          9.1990   -24.2280   -28.3520 h1         1 7QW       0.041200
     38 H16          9.2330   -21.9520   -27.3660 hc         1 7QW       0.047700
     39 H17          7.5280   -22.2570   -27.7160 hc         1 7QW       0.047700
     40 H18          9.0370   -21.7810   -31.2630 h1         1 7QW       0.046700
     41 H19         10.3630   -20.8500   -30.5440 h1         1 7QW       0.046700
     42 H20          7.5480   -20.9220   -29.7210 h1         1 7QW       0.061700
     43 H21          8.2570   -19.5150   -27.8810 hn         1 7QW       0.395500
     44 H22          9.8060   -19.7760   -28.2330 hn         1 7QW       0.395500
     45 H3          18.4570   -25.5980   -23.2890 ho         1 7QW       0.487000
@<TRIPOS>BOND
     1     1     2 1   
     2     1    45 1   
     3     2     3 ar  
     4     2     7 ar  
     5     3     4 ar  
     6     4     5 ar  
     7     4    25 1   
     8     5     6 ar  
     9     5    26 1   
    10     6     7 ar  
    11     6    10 ar  
    12     7     8 ar  
    13     8     9 ar  
    14     8    27 1   
    15     9    11 ar  
    16     9    28 1   
    17    10    11 ar  
    18    10    29 1   
    19    11    12 1   
    20    12    13 ar  
    21    12    16 ar  
    22    13    14 ar  
    23    13    30 1   
    24    14    15 ar  
    25    14    31 1   
    26    15    17 ar  
    27    15    32 1   
    28    16    17 ar  
    29    16    33 1   
    30    17    18 1   
    31    18    19 1   
    32    18    34 1   
    33    18    35 1   
    34    19    20 1   
    35    19    22 1   
    36    20    21 1   
    37    20    36 1   
    38    20    37 1   
    39    21    23 1   
    40    21    38 1   
    41    21    39 1   
    42    22    23 1   
    43    22    40 1   
    44    22    41 1   
    45    23    24 1   
    46    23    42 1   
    47    24    43 1   
    48    24    44 1   
@<TRIPOS>SUBSTRUCTURE
     1 7QW         1 TEMP              0 ****  ****    0 ROOT
