@<TRIPOS>MOLECULE
7QX
   40    40     1     0     0
SMALL
bcc


@<TRIPOS>ATOM
      1 C02         37.2450    43.2370    69.3950 c          1 7QX       0.703500
      2 C04         36.1760    43.1560    71.6570 c6         1 7QX       0.038700
      3 C05         35.2410    41.9770    72.0040 c3         1 7QX      -0.071700
      4 C06         33.8170    42.2770    71.5440 c3         1 7QX      -0.092100
      5 C07         35.7580    40.6470    71.4560 c3         1 7QX      -0.073400
      6 C08         34.9240    39.4450    71.8790 c3         1 7QX      -0.089100
      7 C09         37.5470    42.9560    72.2670 c          1 7QX       0.705500
      8 C11         38.5690    42.7950    69.9900 c6         1 7QX       0.047700
      9 C12         38.9400    41.4060    69.4550 c3         1 7QX      -0.130400
     10 C13         40.4060    40.9800    69.6430 c3         1 7QX       0.164800
     11 C14         40.5190    39.5580    69.0830 c3         1 7QX       0.110400
     12 C17         41.3540    41.9240    68.9150 c3         1 7QX      -0.081100
     13 N03         36.2250    43.4310    70.2380 ns         1 7QX      -0.564900
     14 N10         38.5880    42.8660    71.4350 ns         1 7QX      -0.565900
     15 O01         37.1540    43.4200    68.1910 o          1 7QX      -0.637500
     16 O15         41.8370    39.0880    69.2110 oh         1 7QX      -0.581800
     17 O16         40.7890    41.0060    71.0100 oh         1 7QX      -0.588800
     18 O18         37.6630    42.8950    73.4830 o          1 7QX      -0.634500
     19 H1          35.7670    44.0460    72.1460 h1         1 7QX       0.081700
     20 H2          35.2350    41.9190    73.0960 hc         1 7QX       0.076700
     21 H3          33.4960    43.2680    71.8700 hc         1 7QX       0.038033
     22 H4          33.7230    42.2310    70.4570 hc         1 7QX       0.038033
     23 H5          33.1120    41.5580    71.9580 hc         1 7QX       0.038033
     24 H6          36.7860    40.4860    71.7960 hc         1 7QX       0.039200
     25 H7          35.7990    40.6920    70.3630 hc         1 7QX       0.039200
     26 H8          35.3900    38.5170    71.5480 hc         1 7QX       0.035033
     27 H9          34.8270    39.3960    72.9660 hc         1 7QX       0.035033
     28 H10         33.9200    39.4730    71.4570 hc         1 7QX       0.035033
     29 H11         39.2930    43.5240    69.6150 h1         1 7QX       0.088700
     30 H12         38.7200    41.3880    68.3860 hc         1 7QX       0.064200
     31 H13         38.2840    40.6650    69.9230 hc         1 7QX       0.064200
     32 H14         39.8100    38.9140    69.6250 h1         1 7QX       0.020200
     33 H15         40.1910    39.5720    68.0350 h1         1 7QX       0.020200
     34 H16         42.3860    41.5830    68.9890 hc         1 7QX       0.050700
     35 H17         41.0920    41.9850    67.8590 hc         1 7QX       0.050700
     36 H18         41.3120    42.9330    69.3270 hc         1 7QX       0.050700
     37 H19         35.3690    43.7630    69.8150 hn         1 7QX       0.323500
     38 H20         39.4890    42.6960    71.8610 hn         1 7QX       0.339500
     39 H21         41.8870    38.2240    68.7930 ho         1 7QX       0.406000
     40 H22         40.2580    40.3620    71.4920 ho         1 7QX       0.405000
@<TRIPOS>BOND
     1     1     8 1   
     2     1    13 1   
     3     1    15 2   
     4     2     3 1   
     5     2     7 1   
     6     2    13 1   
     7     2    19 1   
     8     3     4 1   
     9     3     5 1   
    10     3    20 1   
    11     4    21 1   
    12     4    22 1   
    13     4    23 1   
    14     5     6 1   
    15     5    24 1   
    16     5    25 1   
    17     6    26 1   
    18     6    27 1   
    19     6    28 1   
    20     7    14 1   
    21     7    18 2   
    22     8     9 1   
    23     8    14 1   
    24     8    29 1   
    25     9    10 1   
    26     9    30 1   
    27     9    31 1   
    28    10    11 1   
    29    10    12 1   
    30    10    17 1   
    31    11    16 1   
    32    11    32 1   
    33    11    33 1   
    34    12    34 1   
    35    12    35 1   
    36    12    36 1   
    37    13    37 1   
    38    14    38 1   
    39    16    39 1   
    40    17    40 1   
@<TRIPOS>SUBSTRUCTURE
     1 7QX         1 TEMP              0 ****  ****    0 ROOT
