@<TRIPOS>MOLECULE
7QX
   40    40     1     0     0
SMALL
No Charge or Current Charge


@<TRIPOS>ATOM
      1 C02         37.1310    43.2360    69.3390 c          1 7QX       0.561000
      2 C04         36.1480    43.2050    71.6860 c6         1 7QX       0.038700
      3 C05         35.1860    42.0130    72.0210 c3         1 7QX      -0.071700
      4 C06         33.7120    42.3610    71.6870 c3         1 7QX      -0.092100
      5 C07         35.6290    40.6640    71.3800 c3         1 7QX      -0.073400
      6 C08         34.7970    39.4360    71.8100 c3         1 7QX      -0.089100
      7 C09         37.5730    42.9500    72.2700 c          1 7QX       0.563000
      8 C11         38.5260    42.8370    69.9140 c6         1 7QX       0.047700
      9 C12         38.9340    41.4090    69.4180 c3         1 7QX      -0.130400
     10 C13         40.4150    40.9630    69.6310 c3         1 7QX       0.188000
     11 C14         40.6100    39.5010    69.1130 c3         1 7QX       0.133600
     12 C17         41.4120    41.9310    68.9440 c3         1 7QX      -0.081100
     13 N03         36.1280    43.5180    70.2360 ns         1 7QX      -0.497900
     14 N10         38.6270    42.9230    71.3890 ns         1 7QX      -0.498900
     15 O01         36.9310    43.3640    68.1410 o          1 7QX      -0.562000
     16 O15         41.8890    38.9760    69.5200 oh         1 7QX      -0.644000
     17 O16         40.7090    40.9470    71.0300 oh         1 7QX      -0.651000
     18 O18         37.7750    42.8220    73.4680 o          1 7QX      -0.559000
     19 H1          35.7840    44.0970    72.2160 h1         1 7QX       0.081700
     20 H2          35.2210    41.8690    73.1090 hc         1 7QX       0.076700
     21 H3          33.4440    43.3420    72.0980 hc         1 7QX       0.038033
     22 H4          33.5470    42.3870    70.6030 hc         1 7QX       0.038033
     23 H5          33.0230    41.6270    72.1210 hc         1 7QX       0.038033
     24 H6          36.6720    40.4650    71.6510 hc         1 7QX       0.039200
     25 H7          35.5980    40.7450    70.2860 hc         1 7QX       0.039200
     26 H8          35.2420    38.5190    71.4060 hc         1 7QX       0.035033
     27 H9          34.7670    39.3490    72.9020 hc         1 7QX       0.035033
     28 H10         33.7690    39.5010    71.4350 hc         1 7QX       0.035033
     29 H11         39.2180    43.5770    69.4890 h1         1 7QX       0.088700
     30 H12         38.7300    41.3400    68.3420 hc         1 7QX       0.064200
     31 H13         38.2750    40.6670    69.8840 hc         1 7QX       0.064200
     32 H14         39.8060    38.8660    69.5070 h1         1 7QX       0.020200
     33 H15         40.5280    39.4930    68.0180 h1         1 7QX       0.020200
     34 H16         42.4450    41.5780    69.0510 hc         1 7QX       0.050700
     35 H17         41.1940    42.0170    67.8730 hc         1 7QX       0.050700
     36 H18         41.3650    42.9340    69.3850 hc         1 7QX       0.050700
     37 H19         35.2540    43.8270    69.8250 hn         1 7QX       0.323500
     38 H20         39.5240    42.6830    71.8000 hn         1 7QX       0.339500
     39 H21         41.9780    38.0860    69.1130 ho         1 7QX       0.445000
     40 H22         41.3830    40.2350    71.1180 ho         1 7QX       0.444000
@<TRIPOS>BOND
     1     1     8 1   
     2     1    13 1   
     3     1    15 2   
     4     2     3 1   
     5     2     7 1   
     6     2    13 1   
     7     2    19 1   
     8     3     4 1   
     9     3     5 1   
    10     3    20 1   
    11     4    21 1   
    12     4    22 1   
    13     4    23 1   
    14     5     6 1   
    15     5    24 1   
    16     5    25 1   
    17     6    26 1   
    18     6    27 1   
    19     6    28 1   
    20     7    14 1   
    21     7    18 2   
    22     8     9 1   
    23     8    14 1   
    24     8    29 1   
    25     9    10 1   
    26     9    30 1   
    27     9    31 1   
    28    10    11 1   
    29    10    12 1   
    30    10    17 1   
    31    11    16 1   
    32    11    32 1   
    33    11    33 1   
    34    12    34 1   
    35    12    35 1   
    36    12    36 1   
    37    13    37 1   
    38    14    38 1   
    39    16    39 1   
    40    17    40 1   
@<TRIPOS>SUBSTRUCTURE
     1 7QX         1 TEMP              0 ****  ****    0 ROOT
