@<TRIPOS>MOLECULE
7QY
   31    32     1     0     0
SMALL
abcg2


@<TRIPOS>ATOM
      1 C7          -1.1700     1.0670     1.1040 ca         1 7QY      -0.021000
      2 C8          -2.4340     1.5220     0.7390 ca         1 7QY      -0.235000
      3 C12         -2.8420    -0.6240    -0.2910 ca         1 7QY      -0.239000
      4 C6          -0.7140    -0.2020     0.7980 ca         1 7QY      -0.170300
      5 C9          -3.2710     0.6670     0.0350 ca         1 7QY       0.186100
      6 C13         -1.5790    -1.0530     0.0870 ca         1 7QY       0.184100
      7 C2           3.0360    -1.0390     0.4130 c          1 7QY       0.574000
      8 C17          3.4810     1.0130    -0.6650 c          1 7QY       0.592600
      9 C3           1.6250    -0.6770    -0.0050 c5         1 7QY      -0.032700
     10 C11         -5.0080     2.2760    -0.0860 c3         1 7QY       0.147900
     11 C15         -1.9080    -3.1910    -0.9010 c3         1 7QY       0.146900
     12 C5           0.6660    -0.6440     1.1890 c3         1 7QY       0.015900
     13 N16          3.9380    -0.0970     0.0040 ns         1 7QY      -0.484500
     14 O18          4.1660     1.9130    -1.0690 o          1 7QY      -0.468000
     15 O10         -4.5120     0.9850    -0.3780 os         1 7QY      -0.341100
     16 O14         -1.0970    -2.2780    -0.1900 os         1 7QY      -0.346100
     17 S4           1.7280     0.9340    -0.8410 ss         1 7QY      -0.269600
     18 H1          -0.5180     1.7350     1.6550 ha         1 7QY       0.117000
     19 H2          -2.7320     2.5240     1.0130 ha         1 7QY       0.123000
     20 H3          -3.5170    -1.2650    -0.8430 ha         1 7QY       0.134000
     21 H4           1.2950    -1.4210    -0.7340 h1         1 7QY       0.123700
     22 H5          -5.0710     2.4550     0.9910 h1         1 7QY       0.042700
     23 H6          -4.3960     3.0600    -0.5380 h1         1 7QY       0.042700
     24 H7          -6.0090     2.3250    -0.5080 h1         1 7QY       0.042700
     25 H8          -2.8280    -3.4260    -0.3600 h1         1 7QY       0.044367
     26 H9          -2.1670    -2.8170    -1.8940 h1         1 7QY       0.044367
     27 H10         -1.3240    -4.1010    -1.0100 h1         1 7QY       0.044367
     28 H11          1.0630     0.0360     1.9450 hc         1 7QY       0.067700
     29 H12          0.6520    -1.6410     1.6340 hc         1 7QY       0.067700
     30 H13          4.9260    -0.1910     0.2100 hn         1 7QY       0.350500
     31 O1           3.3200    -2.0320     1.0340 o          1 7QY      -0.487000
@<TRIPOS>BOND
     1     1     2 ar  
     2     1     4 ar  
     3     1    18 1   
     4     2     5 ar  
     5     2    19 1   
     6     3     5 ar  
     7     3     6 ar  
     8     3    20 1   
     9     4     6 ar  
    10     4    12 1   
    11     5    15 1   
    12     6    16 1   
    13     7     9 1   
    14     7    13 1   
    15     7    31 2   
    16     8    13 1   
    17     8    14 2   
    18     8    17 1   
    19     9    12 1   
    20     9    17 1   
    21     9    21 1   
    22    10    15 1   
    23    10    22 1   
    24    10    23 1   
    25    10    24 1   
    26    11    16 1   
    27    11    25 1   
    28    11    26 1   
    29    11    27 1   
    30    12    28 1   
    31    12    29 1   
    32    13    30 1   
@<TRIPOS>SUBSTRUCTURE
     1 7QY         1 TEMP              0 ****  ****    0 ROOT
