@<TRIPOS>MOLECULE
7QY
   31    32     1     0     0
SMALL
No Charge or Current Charge


@<TRIPOS>ATOM
      1 C7          -1.1720     1.1460     1.0680 ca         1 7QY      -0.021000
      2 C8          -2.4690     1.5490     0.7140 ca         1 7QY      -0.235000
      3 C12         -2.8790    -0.6330    -0.2710 ca         1 7QY      -0.239000
      4 C6          -0.7170    -0.1500     0.7550 ca         1 7QY      -0.170300
      5 C9          -3.3260     0.6570     0.0420 ca         1 7QY       0.186100
      6 C13         -1.5770    -1.0450     0.0810 ca         1 7QY       0.184100
      7 C2           3.0810    -1.1180     0.3700 c          1 7QY       0.574000
      8 C17          3.6790     1.0110    -0.5750 c          1 7QY       0.592600
      9 C3           1.6800    -0.6210    -0.0520 c5         1 7QY      -0.032700
     10 C11         -5.1670     2.2970    -0.0590 c3         1 7QY       0.147900
     11 C15         -1.9070    -3.2910    -0.9010 c3         1 7QY       0.146900
     12 C5           0.7010    -0.5670     1.1460 c3         1 7QY       0.015900
     13 N16          3.9830    -0.1630     0.0260 ns         1 7QY      -0.484500
     14 O18          4.4890     1.8690    -0.8780 o          1 7QY      -0.468000
     15 O10         -4.6100     0.9990    -0.3310 os         1 7QY      -0.341100
     16 O14         -1.1080    -2.3110    -0.2140 os         1 7QY      -0.346100
     17 S4           1.8930     1.0770    -0.8140 ss         1 7QY      -0.269600
     18 H1          -0.5170     1.8460     1.5840 ha         1 7QY       0.117000
     19 H2          -2.7870     2.5560     0.9690 ha         1 7QY       0.123000
     20 H3          -3.5610    -1.2990    -0.7890 ha         1 7QY       0.134000
     21 H4           1.3040    -1.3170    -0.8120 h1         1 7QY       0.123700
     22 H5          -5.1920     2.4930     1.0210 h1         1 7QY       0.042700
     23 H6          -4.5790     3.0840    -0.5470 h1         1 7QY       0.042700
     24 H7          -6.1950     2.3560    -0.4380 h1         1 7QY       0.042700
     25 H8          -2.8150    -3.5240    -0.3300 h1         1 7QY       0.044367
     26 H9          -2.1980    -2.9290    -1.8960 h1         1 7QY       0.044367
     27 H10         -1.3390    -4.2200    -1.0310 h1         1 7QY       0.044367
     28 H11          1.0990     0.1140     1.9090 hc         1 7QY       0.067700
     29 H12          0.6650    -1.5510     1.6320 hc         1 7QY       0.067700
     30 H13          4.9530    -0.3410     0.2360 hn         1 7QY       0.350500
     31 O1           3.3830    -2.1620     0.9240 o          1 7QY      -0.487000
@<TRIPOS>BOND
     1     1     2 ar  
     2     1     4 ar  
     3     1    18 1   
     4     2     5 ar  
     5     2    19 1   
     6     3     5 ar  
     7     3     6 ar  
     8     3    20 1   
     9     4     6 ar  
    10     4    12 1   
    11     5    15 1   
    12     6    16 1   
    13     7     9 1   
    14     7    13 1   
    15     7    31 2   
    16     8    13 1   
    17     8    14 2   
    18     8    17 1   
    19     9    12 1   
    20     9    17 1   
    21     9    21 1   
    22    10    15 1   
    23    10    22 1   
    24    10    23 1   
    25    10    24 1   
    26    11    16 1   
    27    11    25 1   
    28    11    26 1   
    29    11    27 1   
    30    12    28 1   
    31    12    29 1   
    32    13    30 1   
@<TRIPOS>SUBSTRUCTURE
     1 7QY         1 TEMP              0 ****  ****    0 ROOT
