@<TRIPOS>MOLECULE
7QZ
   80    85     1     0     0
SMALL
No Charge or Current Charge


@<TRIPOS>ATOM
      1 C07          9.0600    11.5740     5.6610 c3         1 7QZ       0.077300
      2 C08         13.1660    14.0370     4.1990 ca         1 7QZ      -0.015800
      3 C09         13.7500    13.9150     5.4910 ca         1 7QZ      -0.120000
      4 C10         15.0690    14.3410     5.7440 ca         1 7QZ       0.304000
      5 C11         15.8060    14.8470     4.6640 ca         1 7QZ      -0.104800
      6 C12         15.2900    14.9400     3.4020 ca         1 7QZ      -0.033200
      7 C13         13.9630    14.5570     3.1480 ca         1 7QZ      -0.097000
      8 C15         17.4270    15.7910     3.2840 cc         1 7QZ      -0.117100
      9 C16         17.1420    15.3850     4.5770 cd         1 7QZ      -0.261200
     10 C17         16.0580    15.6090     1.0540 c3         1 7QZ       0.023400
     11 C18         17.3180    16.2760     0.4030 c3         1 7QZ      -0.095100
     12 C19         15.9010    14.1680     0.4670 ca         1 7QZ       0.329800
     13 C21         16.9600    12.1220     0.0390 ca         1 7QZ       0.344400
     14 C01          8.9630    12.8880     3.5680 c          1 7QZ       0.533200
     15 C02          9.6870    13.7790     2.6180 cc         1 7QZ      -0.047600
     16 C03         11.0090    14.1440     2.8170 cd         1 7QZ      -0.138000
     17 C04         11.7540    13.6340     3.9490 cd         1 7QZ      -0.089200
     18 C05         11.0600    12.8270     4.8400 cc         1 7QZ      -0.059400
     19 N06          9.7240    12.4540     4.6710 n          1 7QZ      -0.253000
     20 N14         16.2570    15.4890     2.5440 na         1 7QZ      -0.078700
     21 N20         17.0230    13.3930     0.4940 nb         1 7QZ      -0.674500
     22 C22         15.7820    11.5480    -0.4600 ca         1 7QZ      -0.152500
     23 C23         14.6140    12.3190    -0.4910 ca         1 7QZ      -0.074000
     24 C24         14.6750    13.6400    -0.0190 ca         1 7QZ      -0.129500
     25 C25         14.8780    16.5570     0.6830 ca         1 7QZ       0.329800
     26 C26         14.2510    17.4030     1.6340 ca         1 7QZ      -0.129500
     27 C27         13.2030    18.2490     1.2360 ca         1 7QZ      -0.074000
     28 C28         12.8230    18.2470    -0.1120 ca         1 7QZ      -0.152500
     29 C29         13.5100    17.4170    -1.0090 ca         1 7QZ       0.344400
     30 N30         14.5190    16.6010    -0.6300 nb         1 7QZ      -0.674500
     31 N31         15.6390    14.2430     7.0060 nu         1 7QZ      -0.921100
     32 S32         15.3390    15.2870     8.2550 s6         1 7QZ       1.217100
     33 C33         13.6330    15.0750     8.7160 c3         1 7QZ      -0.422400
     34 C34         13.3220    13.7470     9.4190 c3         1 7QZ       0.345000
     35 F35         11.9840    13.6050     9.5430 f          1 7QZ      -0.106000
     36 F36         13.7830    12.6750     8.7380 f          1 7QZ      -0.106000
     37 F37         13.8490    13.7160    10.6640 f          1 7QZ      -0.106000
     38 O38         15.5040    16.6230     7.6840 o          1 7QZ      -0.517500
     39 O39         16.2110    14.8420     9.3410 o          1 7QZ      -0.517500
     40 N40          8.9040    14.2210     1.5330 ns         1 7QZ      -0.413100
     41 C41          9.2330    14.9620     0.4090 c          1 7QZ       0.666100
     42 N42          8.1290    15.1920    -0.4000 ns         1 7QZ      -0.172000
     43 C43          7.9690    15.9060    -1.6250 ca         1 7QZ      -0.062000
     44 C44          9.0020    16.6650    -2.2240 ca         1 7QZ      -0.080000
     45 C45          8.7740    17.3480    -3.4330 ca         1 7QZ      -0.117000
     46 C46          7.5180    17.2860    -4.0570 ca         1 7QZ      -0.092000
     47 C47          6.4840    16.5400    -3.4690 ca         1 7QZ      -0.137000
     48 C48          6.7110    15.8580    -2.2630 ca         1 7QZ       0.144000
     49 F49          5.7010    15.1450    -1.7130 f          1 7QZ      -0.179000
     50 O50         10.3610    15.3540     0.1560 o          1 7QZ      -0.621100
     51 O51          7.7900    12.5580     3.4100 o          1 7QZ      -0.584000
     52 H1           9.7410    11.3240     6.4850 h1         1 7QZ       0.057033
     53 H2           8.1800    12.0810     6.0750 h1         1 7QZ       0.057033
     54 H3           8.7420    10.6440     5.1730 h1         1 7QZ       0.057033
     55 H4          13.1780    13.5130     6.3160 ha         1 7QZ       0.107000
     56 H5          13.5650    14.6500     2.1500 ha         1 7QZ       0.135000
     57 H6          18.3240    16.2320     2.8620 h4         1 7QZ       0.220000
     58 H7          17.8390    15.4820     5.4070 ha         1 7QZ       0.207000
     59 H8          18.2420    15.7300     0.6310 hc         1 7QZ       0.059700
     60 H9          17.2260    16.3070    -0.6890 hc         1 7QZ       0.059700
     61 H10         17.4400    17.3070     0.7570 hc         1 7QZ       0.059700
     62 H11         17.8840    11.5460     0.0780 h4         1 7QZ       0.020100
     63 H12         11.4810    14.8390     2.1400 ha         1 7QZ       0.225000
     64 H13         11.4850    12.3830     5.7320 h4         1 7QZ       0.207000
     65 H14         15.7830    10.5210    -0.8140 ha         1 7QZ       0.123000
     66 H15         13.6810    11.9040    -0.8670 ha         1 7QZ       0.123000
     67 H16         13.7680    14.2340    -0.0360 ha         1 7QZ       0.143500
     68 H17         14.5660    17.4170     2.6720 ha         1 7QZ       0.143500
     69 H18         12.7040    18.8950     1.9560 ha         1 7QZ       0.123000
     70 H19         12.0180    18.8850    -0.4660 ha         1 7QZ       0.123000
     71 H20         13.2470    17.4040    -2.0660 h4         1 7QZ       0.020100
     72 H21         16.6470    14.2780     6.9840 hn         1 7QZ       0.514000
     73 H22         13.4210    15.9050     9.3960 h1         1 7QZ       0.133700
     74 H23         13.0410    15.2010     7.8080 h1         1 7QZ       0.133700
     75 H24          7.9300    13.9380     1.5560 hn         1 7QZ       0.343500
     76 H25          7.2690    14.7820    -0.0600 hn         1 7QZ       0.165000
     77 H26          9.9850    16.7450    -1.7710 ha         1 7QZ       0.131000
     78 H27          9.5750    17.9290    -3.8850 ha         1 7QZ       0.119000
     79 H28          7.3460    17.8160    -4.9920 ha         1 7QZ       0.120000
     80 H29          5.5080    16.4890    -3.9450 ha         1 7QZ       0.134000
@<TRIPOS>BOND
     1     1    19 1   
     2     1    52 1   
     3     1    53 1   
     4     1    54 1   
     5     2     3 ar  
     6     2     7 ar  
     7     2    17 1   
     8     3     4 ar  
     9     3    55 1   
    10     4     5 ar  
    11     4    31 1   
    12     5     6 ar  
    13     5     9 1   
    14     6     7 ar  
    15     6    20 1   
    16     7    56 1   
    17     8     9 2   
    18     8    20 1   
    19     8    57 1   
    20     9    58 1   
    21    10    11 1   
    22    10    12 1   
    23    10    20 1   
    24    10    25 1   
    25    11    59 1   
    26    11    60 1   
    27    11    61 1   
    28    12    21 ar  
    29    12    24 ar  
    30    13    21 ar  
    31    13    22 ar  
    32    13    62 1   
    33    14    15 1   
    34    14    19 1   
    35    14    51 2   
    36    15    16 2   
    37    15    40 1   
    38    16    17 1   
    39    16    63 1   
    40    17    18 2   
    41    18    19 1   
    42    18    64 1   
    43    22    23 ar  
    44    22    65 1   
    45    23    24 ar  
    46    23    66 1   
    47    24    67 1   
    48    25    26 ar  
    49    25    30 ar  
    50    26    27 ar  
    51    26    68 1   
    52    27    28 ar  
    53    27    69 1   
    54    28    29 ar  
    55    28    70 1   
    56    29    30 ar  
    57    29    71 1   
    58    31    32 1   
    59    31    72 1   
    60    32    33 1   
    61    32    38 2   
    62    32    39 2   
    63    33    34 1   
    64    33    73 1   
    65    33    74 1   
    66    34    35 1   
    67    34    36 1   
    68    34    37 1   
    69    40    41 1   
    70    40    75 1   
    71    41    42 1   
    72    41    50 2   
    73    42    43 1   
    74    42    76 1   
    75    43    44 ar  
    76    43    48 ar  
    77    44    45 ar  
    78    44    77 1   
    79    45    46 ar  
    80    45    78 1   
    81    46    47 ar  
    82    46    79 1   
    83    47    48 ar  
    84    47    80 1   
    85    48    49 1   
@<TRIPOS>SUBSTRUCTURE
     1 7QZ         1 TEMP              0 ****  ****    0 ROOT
