@<TRIPOS>MOLECULE
7QZ
   80    85     1     0     0
SMALL
bcc


@<TRIPOS>ATOM
      1 C07          9.0910    11.2380     5.3090 c3         1 7QZ       0.077300
      2 C08         12.9740    14.0410     4.1620 ca         1 7QZ      -0.015800
      3 C09         13.5710    14.0490     5.4370 ca         1 7QZ      -0.138000
      4 C10         14.8660    14.4880     5.6170 ca         1 7QZ       0.165600
      5 C11         15.6100    14.9250     4.5140 ca         1 7QZ      -0.104800
      6 C12         15.0130    14.8830     3.2390 ca         1 7QZ      -0.033200
      7 C13         13.7060    14.4480     3.0570 ca         1 7QZ      -0.115000
      8 C15         17.0560    15.7270     3.0150 cc         1 7QZ      -0.067100
      9 C16         16.9150    15.4690     4.3460 cd         1 7QZ      -0.211200
     10 C17         15.6860    15.4820     0.8910 c3         1 7QZ      -0.005900
     11 C18         16.9270    16.0460     0.1880 c3         1 7QZ      -0.095100
     12 C19         15.4510    14.0490     0.3810 ca         1 7QZ       0.395100
     13 C21         16.4230    11.9860     0.1830 ca         1 7QZ       0.409700
     14 C01          8.9110    12.7990     3.4790 c          1 7QZ       0.675700
     15 C02          9.5440    13.8190     2.6610 cc         1 7QZ      -0.047600
     16 C03         10.8110    14.2300     2.9310 cd         1 7QZ      -0.088000
     17 C04         11.5750    13.6250     3.9640 cd         1 7QZ      -0.089200
     18 C05         10.9800    12.6530     4.7050 cc         1 7QZ      -0.009400
     19 N06          9.6920    12.2730     4.4780 n          1 7QZ      -0.320000
     20 N14         15.9150    15.3860     2.3330 na         1 7QZ      -0.049400
     21 N20         16.5020    13.2550     0.5520 nb         1 7QZ      -0.674500
     22 C22         15.2830    11.4270    -0.3760 ca         1 7QZ      -0.235800
     23 C23         14.1820    12.2470    -0.5460 ca         1 7QZ      -0.092000
     24 C24         14.2630    13.5800    -0.1680 ca         1 7QZ      -0.212800
     25 C25         14.5520    16.4630     0.5940 ca         1 7QZ       0.395100
     26 C26         14.0560    17.3460     1.5470 ca         1 7QZ      -0.212800
     27 C27         13.0840    18.2600     1.1660 ca         1 7QZ      -0.092000
     28 C28         12.6400    18.2700    -0.1460 ca         1 7QZ      -0.235800
     29 C29         13.2090    17.3620    -1.0260 ca         1 7QZ       0.409700
     30 N30         14.1410    16.4910    -0.6680 nb         1 7QZ      -0.674500
     31 N31         15.4440    14.4990     6.9110 nu         1 7QZ      -0.727500
     32 S32         15.0950    15.7030     7.9890 s6         1 7QZ       1.247900
     33 C33         13.9180    14.9580     9.1300 c3         1 7QZ      -0.311600
     34 C34         14.4940    13.8980    10.0420 c3         1 7QZ       0.708900
     35 F35         13.5050    13.2850    10.7040 f          1 7QZ      -0.227300
     36 F36         15.1660    12.9570     9.3750 f          1 7QZ      -0.227300
     37 F37         15.3240    14.4040    10.9540 f          1 7QZ      -0.227300
     38 O38         14.3660    16.7560     7.3090 o          1 7QZ      -0.588300
     39 O39         16.3070    15.9960     8.7300 o          1 7QZ      -0.588300
     40 N40          8.7200    14.3130     1.6610 ns         1 7QZ      -0.480100
     41 C41          9.1240    15.0280     0.5670 c          1 7QZ       0.800100
     42 N42          8.1050    15.3300    -0.2960 ns         1 7QZ      -0.498100
     43 C43          8.3250    16.0680    -1.4680 ca         1 7QZ       0.030600
     44 C44          8.9060    17.3330    -1.4450 ca         1 7QZ      -0.098000
     45 C45          9.1070    18.0410    -2.6190 ca         1 7QZ      -0.135000
     46 C46          8.7060    17.5050    -3.8360 ca         1 7QZ      -0.110000
     47 C47          8.1110    16.2530    -3.8790 ca         1 7QZ      -0.155000
     48 C48          7.9440    15.5530    -2.7010 ca         1 7QZ       0.108900
     49 F49          7.3940    14.3300    -2.7390 f          1 7QZ      -0.143900
     50 O50         10.2740    15.3810     0.3740 o          1 7QZ      -0.621100
     51 O51          7.7490    12.4310     3.3090 o          1 7QZ      -0.659500
     52 H1           9.8260    10.8910     6.0270 h1         1 7QZ       0.057033
     53 H2           8.2310    11.6330     5.8480 h1         1 7QZ       0.057033
     54 H3           8.7670    10.3970     4.7000 h1         1 7QZ       0.057033
     55 H4          13.0000    13.7200     6.2960 ha         1 7QZ       0.125000
     56 H5          13.2590    14.4190     2.0750 ha         1 7QZ       0.153000
     57 H6          17.9080    16.1420     2.5030 h4         1 7QZ       0.170000
     58 H7          17.6580    15.6520     5.1060 ha         1 7QZ       0.157000
     59 H8          17.7990    15.4160     0.3510 hc         1 7QZ       0.059700
     60 H9          16.7300    16.0840    -0.8820 hc         1 7QZ       0.059700
     61 H10         17.1430    17.0600     0.5260 hc         1 7QZ       0.059700
     62 H11         17.3100    11.3810     0.3400 h4         1 7QZ       0.020100
     63 H12         11.2450    15.0340     2.3600 ha         1 7QZ       0.175000
     64 H13         11.4920    12.1190     5.4920 h4         1 7QZ       0.157000
     65 H14         15.2640    10.3840    -0.6590 ha         1 7QZ       0.141000
     66 H15         13.2640    11.8610    -0.9690 ha         1 7QZ       0.141000
     67 H16         13.4050    14.2230    -0.2950 ha         1 7QZ       0.161500
     68 H17         14.4140    17.3390     2.5660 ha         1 7QZ       0.161500
     69 H18         12.6810    18.9550     1.8910 ha         1 7QZ       0.141000
     70 H19         11.8800    18.9600    -0.4840 ha         1 7QZ       0.141000
     71 H20         12.9010    17.3390    -2.0660 h4         1 7QZ       0.020100
     72 H21         16.4070    14.1890     6.9800 hn         1 7QZ       0.458800
     73 H22         13.5170    15.7780     9.7310 h1         1 7QZ       0.133700
     74 H23         13.1030    14.5410     8.5370 h1         1 7QZ       0.133700
     75 H24          7.7640    13.9880     1.7160 hn         1 7QZ       0.343500
     76 H25          7.2100    14.8780    -0.1890 hn         1 7QZ       0.331500
     77 H26          9.1960    17.7650    -0.4970 ha         1 7QZ       0.149000
     78 H27          9.5660    19.0200    -2.5810 ha         1 7QZ       0.137000
     79 H28          8.8500    18.0600    -4.7530 ha         1 7QZ       0.138000
     80 H29          7.7930    15.8140    -4.8160 ha         1 7QZ       0.152000
@<TRIPOS>BOND
     1     1    19 1   
     2     1    52 1   
     3     1    53 1   
     4     1    54 1   
     5     2     3 ar  
     6     2     7 ar  
     7     2    17 1   
     8     3     4 ar  
     9     3    55 1   
    10     4     5 ar  
    11     4    31 1   
    12     5     6 ar  
    13     5     9 1   
    14     6     7 ar  
    15     6    20 1   
    16     7    56 1   
    17     8     9 2   
    18     8    20 1   
    19     8    57 1   
    20     9    58 1   
    21    10    11 1   
    22    10    12 1   
    23    10    20 1   
    24    10    25 1   
    25    11    59 1   
    26    11    60 1   
    27    11    61 1   
    28    12    21 ar  
    29    12    24 ar  
    30    13    21 ar  
    31    13    22 ar  
    32    13    62 1   
    33    14    15 1   
    34    14    19 1   
    35    14    51 2   
    36    15    16 2   
    37    15    40 1   
    38    16    17 1   
    39    16    63 1   
    40    17    18 2   
    41    18    19 1   
    42    18    64 1   
    43    22    23 ar  
    44    22    65 1   
    45    23    24 ar  
    46    23    66 1   
    47    24    67 1   
    48    25    26 ar  
    49    25    30 ar  
    50    26    27 ar  
    51    26    68 1   
    52    27    28 ar  
    53    27    69 1   
    54    28    29 ar  
    55    28    70 1   
    56    29    30 ar  
    57    29    71 1   
    58    31    32 1   
    59    31    72 1   
    60    32    33 1   
    61    32    38 2   
    62    32    39 2   
    63    33    34 1   
    64    33    73 1   
    65    33    74 1   
    66    34    35 1   
    67    34    36 1   
    68    34    37 1   
    69    40    41 1   
    70    40    75 1   
    71    41    42 1   
    72    41    50 2   
    73    42    43 1   
    74    42    76 1   
    75    43    44 ar  
    76    43    48 ar  
    77    44    45 ar  
    78    44    77 1   
    79    45    46 ar  
    80    45    78 1   
    81    46    47 ar  
    82    46    79 1   
    83    47    48 ar  
    84    47    80 1   
    85    48    49 1   
@<TRIPOS>SUBSTRUCTURE
     1 7QZ         1 TEMP              0 ****  ****    0 ROOT
