@<TRIPOS>MOLECULE
7R0
   42    44     1     0     0
SMALL
bcc


@<TRIPOS>ATOM
      1 CZ1          2.2210   -11.5950   -33.2060 ca         1 7R0       0.131100
      2 CE1          0.8690   -11.9400   -33.2470 ca         1 7R0      -0.205500
      3 CE2          2.7980   -10.9660   -34.3090 ca         1 7R0      -0.205500
      4 CD2          2.0270   -10.6930   -35.4200 ca         1 7R0      -0.072500
      5 CD1          0.1060   -11.6600   -34.3640 ca         1 7R0      -0.072500
      6 CG2          0.6630   -11.0270   -35.4840 ca         1 7R0      -0.079800
      7 CB2         -0.0310   -10.6840   -36.7070 ce         1 7R0      -0.046200
      8 CA2         -1.3070   -10.7980   -37.1440 cd         1 7R0       0.031400
      9 C1H         -5.0890   -10.4120   -43.7910 cc         1 7R0       0.376400
     10 OH           3.0020   -11.8420   -32.1440 oh         1 7R0      -0.504100
     11 N2H         -4.5050    -9.2460   -44.1230 na         1 7R0      -0.313900
     12 C2          -2.5320   -11.3460   -36.5140 c          1 7R0       0.684700
     13 N3          -3.5040   -11.1160   -37.4540 n          1 7R0      -0.372300
     14 C1          -2.9050   -10.5760   -38.5740 cc         1 7R0       0.469900
     15 N2          -1.6470   -10.3550   -38.4250 nd         1 7R0      -0.667300
     16 CB1         -2.8330   -10.2190   -41.0420 c3         1 7R0      -0.078700
     17 CG1         -3.6290   -10.0110   -42.2830 cd         1 7R0       0.342600
     18 N1H         -4.5850   -10.9040   -42.6880 nd         1 7R0      -0.647000
     19 C2H         -3.5670    -8.9720   -43.1690 cc         1 7R0      -0.274600
     20 O2          -2.7190   -11.8940   -35.4420 o          1 7R0      -0.607500
     21 N           -4.3230    -8.8770   -39.6260 n8         1 7R0      -0.890800
     22 CA1         -3.7040   -10.1850   -39.7860 c3         1 7R0       0.145200
     23 C           -4.8760   -13.0870   -38.1140 c          1 7R0       0.922600
     24 CA3         -4.8110   -11.7170   -37.3920 c3         1 7R0      -0.066000
     25 O           -5.9340   -13.7150   -37.9380 o          1 7R0      -0.817800
     26 OXY         -3.8880   -13.4050   -38.7980 o          1 7R0      -0.817800
     27 H7          -2.3250   -11.1870   -41.0850 hc         1 7R0       0.064200
     28 H9          -2.9550    -8.0860   -43.1980 h4         1 7R0       0.165000
     29 H4          -4.9840    -8.8830   -38.8580 hn         1 7R0       0.338800
     30 H2          -5.0830   -11.8300   -36.3430 h1         1 7R0       0.045700
     31 H19          0.4090   -12.4310   -32.3970 ha         1 7R0       0.131500
     32 H17          3.8460   -10.6960   -34.2900 ha         1 7R0       0.131500
     33 H16          2.4920   -10.2050   -36.2680 ha         1 7R0       0.153500
     34 H18         -0.9350   -11.9400   -34.3650 ha         1 7R0       0.153500
     35 H14          0.6150   -10.2220   -37.4480 ha         1 7R0       0.126000
     36 H20          2.5030   -12.2850   -31.4470 ho         1 7R0       0.422000
     37 H8          -2.0500    -9.4610   -40.9700 hc         1 7R0       0.064200
     38 H5          -3.6170    -8.1880   -39.3930 hn         1 7R0       0.338800
     39 H3          -4.5030   -10.9160   -39.9230 h1         1 7R0       0.125700
     40 H1          -5.5500   -11.0380   -37.8240 h1         1 7R0       0.045700
     41 H12         -5.8710   -10.8590   -44.3860 h5         1 7R0       0.045100
     42 H10         -4.7200    -8.6820   -44.9300 hn         1 7R0       0.285700
@<TRIPOS>BOND
     1     1     2 ar  
     2     1     3 ar  
     3     1    10 1   
     4     2     5 ar  
     5     2    31 1   
     6     3     4 ar  
     7     3    32 1   
     8     4     6 ar  
     9     4    33 1   
    10     5     6 ar  
    11     5    34 1   
    12     6     7 1   
    13     7     8 2   
    14     7    35 1   
    15     8    12 1   
    16     8    15 1   
    17     9    11 1   
    18     9    18 2   
    19     9    41 1   
    20    10    36 1   
    21    11    19 1   
    22    11    42 1   
    23    12    13 1   
    24    12    20 2   
    25    13    14 1   
    26    13    24 1   
    27    14    15 2   
    28    14    22 1   
    29    16    17 1   
    30    16    22 1   
    31    16    27 1   
    32    16    37 1   
    33    17    18 1   
    34    17    19 2   
    35    19    28 1   
    36    21    22 1   
    37    21    29 1   
    38    21    38 1   
    39    22    39 1   
    40    23    24 1   
    41    23    25 1   
    42    23    26 1   
    43    24    30 1   
    44    24    40 1   
@<TRIPOS>SUBSTRUCTURE
     1 7R0         1 TEMP              0 ****  ****    0 ROOT
