@<TRIPOS>MOLECULE
7R0
   42    44     1     0     0
SMALL
No Charge or Current Charge


@<TRIPOS>ATOM
      1 CZ1          1.9600   -11.6950   -33.0290 ca         1 7R0       0.131100
      2 CE1          0.6250   -11.2610   -33.0250 ca         1 7R0      -0.187500
      3 CE2          2.6890   -11.7100   -34.2260 ca         1 7R0      -0.187500
      4 CD2          2.0830   -11.2980   -35.4260 ca         1 7R0      -0.054500
      5 CD1          0.0170   -10.8490   -34.2250 ca         1 7R0      -0.054500
      6 CG2          0.7390   -10.8770   -35.4350 ca         1 7R0      -0.079800
      7 CB2          0.1230   -10.4230   -36.7120 ce         1 7R0      -0.096200
      8 CA2         -1.1280   -10.6690   -37.2370 cd         1 7R0       0.031400
      9 C1H         -5.3910   -10.4030   -43.7570 cc         1 7R0       0.376400
     10 OH           2.5550   -12.0940   -31.8710 oh         1 7R0      -0.543100
     11 N2H         -4.8960    -9.1580   -44.0620 na         1 7R0      -0.313500
     12 C2          -2.1510   -11.6060   -36.7190 c          1 7R0       0.542200
     13 N3          -3.1620   -11.4090   -37.6290 n          1 7R0      -0.305300
     14 C1          -2.7630   -10.4870   -38.5890 cc         1 7R0       0.469900
     15 N2          -1.5320    -9.9920   -38.3840 nd         1 7R0      -0.667300
     16 CB1         -2.9530   -10.1390   -41.1180 c3         1 7R0      -0.078700
     17 CG1         -3.8680    -9.9340   -42.2960 cd         1 7R0       0.277300
     18 N1H         -4.7770   -10.8960   -42.6930 nd         1 7R0      -0.647000
     19 C2H         -3.9170    -8.8520   -43.1380 cc         1 7R0      -0.242000
     20 O2          -2.1400   -12.3740   -35.7640 o          1 7R0      -0.532000
     21 N           -4.1720    -8.6050   -39.5630 n8         1 7R0      -1.001200
     22 CA1         -3.6620   -10.0100   -39.7470 c3         1 7R0       0.145200
     23 C           -4.4830   -13.4560   -38.3940 c          1 7R0       0.712000
     24 CA3         -4.4540   -12.1490   -37.5690 c3         1 7R0      -0.066000
     25 O           -4.9960   -14.4440   -37.8890 o          1 7R0      -0.712500
     26 OXY         -3.9630   -13.4530   -39.5000 o          1 7R0      -0.712500
     27 H7          -2.5050   -11.1370   -41.1870 hc         1 7R0       0.064200
     28 H9          -3.3500    -7.9290   -43.1420 h4         1 7R0       0.147000
     29 H4          -4.6850    -8.5430   -38.6750 hn         1 7R0       0.394000
     30 H2          -4.6720   -12.4000   -36.5230 h1         1 7R0       0.045700
     31 H19          0.0550   -11.2370   -32.1000 ha         1 7R0       0.113500
     32 H17          3.7250   -12.0400   -34.2270 ha         1 7R0       0.113500
     33 H16          2.6560   -11.3100   -36.3520 ha         1 7R0       0.135500
     34 H18         -1.0130   -10.4980   -34.2100 ha         1 7R0       0.135500
     35 H14          0.7380    -9.7300   -37.2870 ha         1 7R0       0.176000
     36 H20          1.9000   -12.0170   -31.1440 ho         1 7R0       0.461000
     37 H8          -2.1180    -9.4290   -41.1670 hc         1 7R0       0.064200
     38 H5          -3.3660    -7.9850   -39.4140 hn         1 7R0       0.394000
     39 H3          -4.5280   -10.6850   -39.7900 h1         1 7R0       0.125700
     40 H1          -5.2670   -11.5040   -37.9220 h1         1 7R0       0.045700
     41 H12         -6.1730   -10.8820   -44.3350 h5         1 7R0       0.045100
     42 H10         -5.2070    -8.5840   -44.8380 hn         1 7R0       0.336000
@<TRIPOS>BOND
     1     1     2 ar  
     2     1     3 ar  
     3     1    10 1   
     4     2     5 ar  
     5     2    31 1   
     6     3     4 ar  
     7     3    32 1   
     8     4     6 ar  
     9     4    33 1   
    10     5     6 ar  
    11     5    34 1   
    12     6     7 1   
    13     7     8 2   
    14     7    35 1   
    15     8    12 1   
    16     8    15 1   
    17     9    11 1   
    18     9    18 2   
    19     9    41 1   
    20    10    36 1   
    21    11    19 1   
    22    11    42 1   
    23    12    13 1   
    24    12    20 2   
    25    13    14 1   
    26    13    24 1   
    27    14    15 2   
    28    14    22 1   
    29    16    17 1   
    30    16    22 1   
    31    16    27 1   
    32    16    37 1   
    33    17    18 1   
    34    17    19 2   
    35    19    28 1   
    36    21    22 1   
    37    21    29 1   
    38    21    38 1   
    39    22    39 1   
    40    23    24 1   
    41    23    25 1   
    42    23    26 1   
    43    24    30 1   
    44    24    40 1   
@<TRIPOS>SUBSTRUCTURE
     1 7R0         1 TEMP              0 ****  ****    0 ROOT
