@<TRIPOS>MOLECULE
7R1
   31    32     1     0     0
SMALL
No Charge or Current Charge


@<TRIPOS>ATOM
      1 C7          -1.3800    -1.0960    -1.0980 ca         1 7R1      -0.022000
      2 C8          -2.6180    -1.6510    -0.7400 ca         1 7R1      -0.235000
      3 C12         -3.2440     0.4370     0.3340 ca         1 7R1      -0.239000
      4 C6          -1.0620     0.2300    -0.7420 ca         1 7R1      -0.175300
      5 C9          -3.5540    -0.8820    -0.0210 ca         1 7R1       0.188100
      6 C13         -2.0010     1.0010    -0.0220 ca         1 7R1       0.185100
      7 C2           2.6180     1.5690    -0.3720 c          1 7R1       0.562000
      8 C17          3.4130    -0.5280     0.5070 cs         1 7R1       0.331000
      9 C3           1.2810     0.9320     0.0500 c5         1 7R1      -0.063700
     10 C11         -5.2050    -2.7150     0.0450 c3         1 7R1       0.146900
     11 C15         -2.5530     3.1600     1.0500 c3         1 7R1       0.146900
     12 C5           0.2950     0.8120    -1.1380 c3         1 7R1       0.017900
     13 N16          3.6050     0.6850    -0.0620 ns         1 7R1      -0.406500
     14 O10         -4.7860    -1.3750     0.3580 os         1 7R1      -0.340100
     15 O14         -1.6660     2.2990     0.3140 os         1 7R1      -0.347100
     16 S18          4.6080    -1.6260     0.8890 s          1 7R1      -0.411400
     17 S4           1.6760    -0.7520     0.7590 ss         1 7R1      -0.133600
     18 H1          -0.6630    -1.7010    -1.6500 ha         1 7R1       0.118000
     19 H2          -2.8300    -2.6760    -1.0280 ha         1 7R1       0.124000
     20 H3          -3.9830     1.0050     0.8870 ha         1 7R1       0.134000
     21 H4           0.8500     1.5640     0.8360 h1         1 7R1       0.127700
     22 H5          -5.2290    -2.8740    -1.0410 h1         1 7R1       0.043700
     23 H6          -4.5250    -3.4510     0.4940 h1         1 7R1       0.043700
     24 H7          -6.2120    -2.9000     0.4380 h1         1 7R1       0.043700
     25 H8          -3.4920     3.3140     0.5020 h1         1 7R1       0.045033
     26 H9          -2.7840     2.7330     2.0340 h1         1 7R1       0.045033
     27 H10         -2.0870     4.1410     1.2060 h1         1 7R1       0.045033
     28 H11          0.7520     0.2030    -1.9290 hc         1 7R1       0.068200
     29 H12          0.1450     1.8010    -1.5880 hc         1 7R1       0.068200
     30 H13          4.5520     0.9660    -0.2810 hn         1 7R1       0.361500
     31 O1           2.8140     2.6530    -0.8980 o          1 7R1      -0.473000
@<TRIPOS>BOND
     1     1     2 ar  
     2     1     4 ar  
     3     1    18 1   
     4     2     5 ar  
     5     2    19 1   
     6     3     5 ar  
     7     3     6 ar  
     8     3    20 1   
     9     4     6 ar  
    10     4    12 1   
    11     5    14 1   
    12     6    15 1   
    13     7     9 1   
    14     7    13 1   
    15     7    31 2   
    16     8    13 1   
    17     8    16 2   
    18     8    17 1   
    19     9    12 1   
    20     9    17 1   
    21     9    21 1   
    22    10    14 1   
    23    10    22 1   
    24    10    23 1   
    25    10    24 1   
    26    11    15 1   
    27    11    25 1   
    28    11    26 1   
    29    11    27 1   
    30    12    28 1   
    31    12    29 1   
    32    13    30 1   
@<TRIPOS>SUBSTRUCTURE
     1 7R1         1 TEMP              0 ****  ****    0 ROOT
