@<TRIPOS>MOLECULE
7R1
   31    32     1     0     0
SMALL
bcc


@<TRIPOS>ATOM
      1 C7          -1.3980    -1.0450    -1.1230 ca         1 7R1      -0.040000
      2 C8          -2.6030    -1.6350    -0.7540 ca         1 7R1      -0.253000
      3 C12         -3.2070     0.4270     0.3490 ca         1 7R1      -0.257000
      4 C6          -1.0670     0.2550    -0.7850 ca         1 7R1      -0.175300
      5 C9          -3.5110    -0.8890    -0.0130 ca         1 7R1       0.188100
      6 C13         -2.0010     0.9930    -0.0340 ca         1 7R1       0.185100
      7 C2           2.5640     1.5180    -0.4060 c          1 7R1       0.704500
      8 C17          3.2690    -0.5010     0.5780 cs         1 7R1       0.398000
      9 C3           1.2160     0.9630     0.0030 c5         1 7R1      -0.111600
     10 C11         -5.0850    -2.6600     0.0610 c3         1 7R1       0.123700
     11 C15         -2.5120     3.0470     1.0520 c3         1 7R1       0.123700
     12 C5           0.2530     0.8490    -1.1840 c3         1 7R1       0.017900
     13 N16          3.5800     0.6690    -0.0350 ns         1 7R1      -0.540500
     14 O10         -4.7070    -1.3410     0.4040 os         1 7R1      -0.316900
     15 O14         -1.6390     2.2510     0.2740 os         1 7R1      -0.323900
     16 S18          4.3450    -1.6280     1.0690 s          1 7R1      -0.411400
     17 S4           1.5510    -0.6520     0.7710 ss         1 7R1      -0.085700
     18 H1          -0.6930    -1.6270    -1.7040 ha         1 7R1       0.136000
     19 H2          -2.8050    -2.6540    -1.0530 ha         1 7R1       0.142000
     20 H3          -3.9330     0.9810     0.9290 ha         1 7R1       0.152000
     21 H4           0.7980     1.6250     0.7640 h1         1 7R1       0.127700
     22 H5          -5.1380    -2.8010    -1.0220 h1         1 7R1       0.043700
     23 H6          -4.4000    -3.4020     0.4800 h1         1 7R1       0.043700
     24 H7          -6.0740    -2.8190     0.4830 h1         1 7R1       0.043700
     25 H8          -3.4620     3.2250     0.5430 h1         1 7R1       0.045033
     26 H9          -2.7120     2.5970     2.0270 h1         1 7R1       0.045033
     27 H10         -2.0100     3.9990     1.2010 h1         1 7R1       0.045033
     28 H11          0.7110     0.2290    -1.9570 hc         1 7R1       0.068200
     29 H12          0.1280     1.8480    -1.6070 hc         1 7R1       0.068200
     30 H13          4.5470     0.8970    -0.2320 hn         1 7R1       0.361500
     31 O1           2.7290     2.5600    -0.9850 o          1 7R1      -0.548500
@<TRIPOS>BOND
     1     1     2 ar  
     2     1     4 ar  
     3     1    18 1   
     4     2     5 ar  
     5     2    19 1   
     6     3     5 ar  
     7     3     6 ar  
     8     3    20 1   
     9     4     6 ar  
    10     4    12 1   
    11     5    14 1   
    12     6    15 1   
    13     7     9 1   
    14     7    13 1   
    15     7    31 2   
    16     8    13 1   
    17     8    16 2   
    18     8    17 1   
    19     9    12 1   
    20     9    17 1   
    21     9    21 1   
    22    10    14 1   
    23    10    22 1   
    24    10    23 1   
    25    10    24 1   
    26    11    15 1   
    27    11    25 1   
    28    11    26 1   
    29    11    27 1   
    30    12    28 1   
    31    12    29 1   
    32    13    30 1   
@<TRIPOS>SUBSTRUCTURE
     1 7R1         1 TEMP              0 ****  ****    0 ROOT
