@<TRIPOS>MOLECULE
7R2
   50    52     1     0     0
SMALL
No Charge or Current Charge


@<TRIPOS>ATOM
      1 C02         -5.1560     0.7350     0.3180 cc         1 7R2      -0.281900
      2 C03         -6.1740     1.6260     0.5800 cd         1 7R2      -0.079000
      3 C04         -7.4310     1.2430     0.0410 cd         1 7R2      -0.141000
      4 C05         -7.3930     0.0580    -0.6450 cc         1 7R2      -0.240000
      5 C06         -3.7560     0.8240     0.7080 ce         1 7R2       0.695800
      6 C21         -1.5320    -0.3310     0.2660 ca         1 7R2       0.219000
      7 C22         -0.9310    -1.5950     0.3620 ca         1 7R2      -0.107000
      8 C23          0.4600    -1.7530     0.1940 ca         1 7R2      -0.121300
      9 C24          1.2850    -0.6300    -0.0740 ca         1 7R2       0.312000
     10 C25          0.6650     0.6340    -0.1940 ca         1 7R2      -0.163000
     11 C26         -0.7240     0.7820    -0.0300 ca         1 7R2      -0.086000
     12 C27          1.0630    -3.1510     0.3000 c6         1 7R2      -0.024100
     13 C28          2.3400    -3.2500    -0.5470 c6         1 7R2      -0.084400
     14 C29          3.3290    -2.1300    -0.1700 c6         1 7R2       0.206800
     15 C32          5.1410     0.1910    -0.0670 c3         1 7R2       0.156800
     16 C34          5.7200     2.3210     1.0780 c3         1 7R2       0.146100
     17 C35          7.4350     1.0740    -0.2100 c3         1 7R2       0.168800
     18 C36          8.3650     2.2720    -0.4890 c3         1 7R2      -0.089100
     19 N07         -2.9190    -0.2310     0.4280 nu         1 7R2      -0.958200
     20 N08         -3.3180     1.8230     1.3560 n2         1 7R2      -0.812100
     21 N30          2.7010    -0.7730    -0.2200 nh         1 7R2      -0.795400
     22 N33          5.9960     1.4160    -0.0690 n3         1 7R2      -0.717600
     23 S01         -5.7680    -0.6170    -0.6400 ss         1 7R2       0.217000
     24 H1          -6.0300     2.5400     1.1500 ha         1 7R2       0.151000
     25 H2          -8.3340     1.8350     0.1610 ha         1 7R2       0.136000
     26 H3          -8.1910    -0.4680    -1.1540 h4         1 7R2       0.150000
     27 H4          -1.5470    -2.4650     0.5740 ha         1 7R2       0.109000
     28 H5           1.2490     1.5180    -0.4260 ha         1 7R2       0.118000
     29 H6          -1.1630     1.7670    -0.1590 ha         1 7R2       0.125000
     30 H7           1.2930    -3.3720     1.3520 hc         1 7R2       0.048200
     31 H8           0.3410    -3.9100    -0.0320 hc         1 7R2       0.048200
     32 H9           2.8140    -4.2310    -0.4100 hc         1 7R2       0.053200
     33 H10          2.0840    -3.1670    -1.6120 hc         1 7R2       0.053200
     34 H11          3.7170    -2.3200     0.8420 h1         1 7R2       0.037200
     35 H12          4.1770    -2.1920    -0.8670 h1         1 7R2       0.037200
     36 H13          3.2960     1.0510     0.6580 h1         1 7R2       0.048200
     37 H14          3.4350     1.0130    -1.1040 h1         1 7R2       0.048200
     38 H15          5.3320    -0.3870     0.8470 h1         1 7R2       0.037200
     39 H16          5.4410    -0.4400    -0.9150 h1         1 7R2       0.037200
     40 H17          5.9610     1.8280     2.0310 h1         1 7R2       0.031367
     41 H18          6.3100     3.2430     1.0100 h1         1 7R2       0.031367
     42 H19          4.6660     2.6230     1.1040 h1         1 7R2       0.031367
     43 H20          7.5580     0.3710    -1.0460 h1         1 7R2       0.028700
     44 H21          7.7890     0.5570     0.6940 h1         1 7R2       0.028700
     45 H22          8.4340     2.9370     0.3790 hc         1 7R2       0.038367
     46 H23          9.3770     1.9150    -0.7160 hc         1 7R2       0.038367
     47 H24          8.0050     2.8490    -1.3490 hc         1 7R2       0.038367
     48 H25         -3.4250    -1.1020     0.3050 hn         1 7R2       0.483000
     49 H26         -2.3540     1.5830     1.6060 hn         1 7R2       0.387400
     50 C31          3.6010     0.4260    -0.1900 c3         1 7R2       0.202800
@<TRIPOS>BOND
     1     1     2 2   
     2     1     5 1   
     3     1    23 1   
     4     2     3 1   
     5     2    24 1   
     6     3     4 2   
     7     3    25 1   
     8     4    23 1   
     9     4    26 1   
    10     5    19 1   
    11     5    20 2   
    12     6     7 ar  
    13     6    11 ar  
    14     6    19 1   
    15     7     8 ar  
    16     7    27 1   
    17     8     9 ar  
    18     8    12 1   
    19     9    10 ar  
    20     9    21 1   
    21    10    11 ar  
    22    10    28 1   
    23    11    29 1   
    24    12    13 1   
    25    12    30 1   
    26    12    31 1   
    27    13    14 1   
    28    13    32 1   
    29    13    33 1   
    30    14    21 1   
    31    14    34 1   
    32    14    35 1   
    33    15    22 1   
    34    15    38 1   
    35    15    39 1   
    36    15    50 1   
    37    16    22 1   
    38    16    40 1   
    39    16    41 1   
    40    16    42 1   
    41    17    18 1   
    42    17    22 1   
    43    17    43 1   
    44    17    44 1   
    45    18    45 1   
    46    18    46 1   
    47    18    47 1   
    48    19    48 1   
    49    20    49 1   
    50    21    50 1   
    51    36    50 1   
    52    37    50 1   
@<TRIPOS>SUBSTRUCTURE
     1 7R2         1 TEMP              0 ****  ****    0 ROOT
