@<TRIPOS>MOLECULE
7R2
   50    52     1     0     0
SMALL
abcg2


@<TRIPOS>ATOM
      1 C02         -4.9960     0.7610     0.1320 cc         1 7R2      -0.281900
      2 C03         -6.0360     1.0280     0.9760 cd         1 7R2      -0.079000
      3 C04         -7.2900     1.0350     0.3170 cd         1 7R2      -0.141000
      4 C05         -7.1800     0.7790    -1.0180 cc         1 7R2      -0.240000
      5 C06         -3.5680     0.6950     0.4810 ce         1 7R2       0.695800
      6 C21         -1.4230    -0.2420    -0.2420 ca         1 7R2       0.219000
      7 C22         -0.8740    -1.5020    -0.0440 ca         1 7R2      -0.107000
      8 C23          0.4930    -1.7090     0.0680 ca         1 7R2      -0.121300
      9 C24          1.3760    -0.6090    -0.0060 ca         1 7R2       0.312000
     10 C25          0.8070     0.6620    -0.1890 ca         1 7R2      -0.163000
     11 C26         -0.5580     0.8410    -0.3240 ca         1 7R2      -0.086000
     12 C27          0.9990    -3.1080     0.3040 c6         1 7R2      -0.024100
     13 C28          2.4880    -3.2140     0.0330 c6         1 7R2      -0.084400
     14 C29          3.2050    -2.0390     0.6670 c6         1 7R2       0.206800
     15 C32          5.0680     0.1190     0.1440 c3         1 7R2       0.156800
     16 C34          5.7440     2.2610     1.0100 c3         1 7R2       0.146100
     17 C35          7.1810     1.0410    -0.4820 c3         1 7R2       0.168800
     18 C36          7.9150     2.2230    -1.0960 c3         1 7R2      -0.089100
     19 N07         -2.8160    -0.0760    -0.3810 nu         1 7R2      -0.958200
     20 N08         -3.1600     1.3500     1.4950 n2         1 7R2      -0.812100
     21 N30          2.7500    -0.7910     0.0790 nh         1 7R2      -0.795400
     22 N33          5.8070     1.3440    -0.1100 n3         1 7R2      -0.717600
     23 S01         -5.5540     0.5310    -1.4830 ss         1 7R2       0.217000
     24 H1          -5.9030     1.2000     2.0340 ha         1 7R2       0.151000
     25 H2          -8.2320     1.2220     0.8120 ha         1 7R2       0.136000
     26 H3          -7.9690     0.7300    -1.7530 h4         1 7R2       0.150000
     27 H4          -1.5330    -2.3610     0.0280 ha         1 7R2       0.109000
     28 H5           1.4270     1.5450    -0.2420 ha         1 7R2       0.118000
     29 H6          -0.9430     1.8390    -0.4980 ha         1 7R2       0.125000
     30 H7           0.8000    -3.3900     1.3430 hc         1 7R2       0.048200
     31 H8           0.4410    -3.8150    -0.3140 hc         1 7R2       0.048200
     32 H9           2.8850    -4.1470     0.4360 hc         1 7R2       0.053200
     33 H10          2.6850    -3.2160    -1.0420 hc         1 7R2       0.053200
     34 H11          3.0540    -2.0500     1.7570 h1         1 7R2       0.037200
     35 H12          4.2750    -2.1420     0.4980 h1         1 7R2       0.037200
     36 H13          3.3570     0.8200     1.2920 h1         1 7R2       0.048200
     37 H14          3.3260     1.1400    -0.4400 h1         1 7R2       0.048200
     38 H15          5.4700    -0.4190     1.0190 h1         1 7R2       0.037200
     39 H16          5.2040    -0.5330    -0.7230 h1         1 7R2       0.037200
     40 H17          6.1790     1.8430     1.9320 h1         1 7R2       0.031367
     41 H18          6.2760     3.1830     0.7790 h1         1 7R2       0.031367
     42 H19          4.7140     2.5440     1.2270 h1         1 7R2       0.031367
     43 H20          7.1530     0.2360    -1.2200 h1         1 7R2       0.028700
     44 H21          7.7550     0.6530     0.3760 h1         1 7R2       0.028700
     45 H22          8.0600     3.0430    -0.3930 hc         1 7R2       0.038367
     46 H23          8.9040     1.9090    -1.4330 hc         1 7R2       0.038367
     47 H24          7.3720     2.6070    -1.9590 hc         1 7R2       0.038367
     48 H25         -3.3010    -0.8440    -0.8210 hn         1 7R2       0.483000
     49 H26         -2.1750     1.1810     1.6790 hn         1 7R2       0.387400
     50 C31          3.5730     0.3840     0.3070 c3         1 7R2       0.202800
@<TRIPOS>BOND
     1     1     2 2   
     2     1     5 1   
     3     1    23 1   
     4     2     3 1   
     5     2    24 1   
     6     3     4 2   
     7     3    25 1   
     8     4    23 1   
     9     4    26 1   
    10     5    19 1   
    11     5    20 2   
    12     6     7 ar  
    13     6    11 ar  
    14     6    19 1   
    15     7     8 ar  
    16     7    27 1   
    17     8     9 ar  
    18     8    12 1   
    19     9    10 ar  
    20     9    21 1   
    21    10    11 ar  
    22    10    28 1   
    23    11    29 1   
    24    12    13 1   
    25    12    30 1   
    26    12    31 1   
    27    13    14 1   
    28    13    32 1   
    29    13    33 1   
    30    14    21 1   
    31    14    34 1   
    32    14    35 1   
    33    15    22 1   
    34    15    38 1   
    35    15    39 1   
    36    15    50 1   
    37    16    22 1   
    38    16    40 1   
    39    16    41 1   
    40    16    42 1   
    41    17    18 1   
    42    17    22 1   
    43    17    43 1   
    44    17    44 1   
    45    18    45 1   
    46    18    46 1   
    47    18    47 1   
    48    19    48 1   
    49    20    49 1   
    50    21    50 1   
    51    36    50 1   
    52    37    50 1   
@<TRIPOS>SUBSTRUCTURE
     1 7R2         1 TEMP              0 ****  ****    0 ROOT
