@<TRIPOS>MOLECULE
7R3
   58    61     1     0     0
SMALL
No Charge or Current Charge


@<TRIPOS>ATOM
      1 C10         37.7130    46.8620    43.2330 c6         1 7R3       0.100300
      2 C13         40.3550    48.1090    42.8450 c6         1 7R3       0.133300
      3 C15         41.2580    49.3750    42.6710 c3         1 7R3       0.171600
      4 C17         38.2030    46.5420    46.8090 ca         1 7R3      -0.086000
      5 C21         37.5720    46.8070    48.0350 ca         1 7R3      -0.107000
      6 C22         36.7780    47.9550    48.1930 ca         1 7R3       0.135000
      7 C24         40.3440    55.8710    50.4870 c5         1 7R3       0.157600
      8 C26         36.5160    51.2330    47.9740 ca         1 7R3      -0.116300
      9 C28         37.6880    51.7730    47.4130 ca         1 7R3      -0.063500
     10 C09         38.4970    46.6510    41.9060 c6         1 7R3       0.176300
     11 C11         39.4210    47.8720    41.6170 c6         1 7R3       0.145300
     12 C12         38.7310    47.1380    44.3860 c6         1 7R3       0.188600
     13 C14         38.0420    47.4270    45.7260 ca         1 7R3      -0.086300
     14 C16         37.2450    48.5790    45.8870 ca         1 7R3      -0.081000
     15 C18         36.6080    48.8540    47.1150 ca         1 7R3      -0.072300
     16 C19         39.6940    54.9210    49.4240 c5         1 7R3       0.137300
     17 C23         39.2040    55.9170    48.3240 c5         1 7R3      -0.146400
     18 C25         38.9700    57.1900    49.1640 c5         1 7R3       0.158600
     19 C27         37.9210    53.3050    49.3120 ca         1 7R3       0.143100
     20 C29         36.0490    51.7330    49.2030 ca         1 7R3      -0.063500
     21 C30         38.3910    52.7980    48.0710 ca         1 7R3      -0.171000
     22 C31         36.7500    52.7570    49.8610 ca         1 7R3      -0.171000
     23 O2          39.5560    48.2770    44.0470 os         1 7R3      -0.431000
     24 O3          37.5770    46.4360    40.8220 oh         1 7R3      -0.647000
     25 O4          36.8780    45.7130    43.5050 oh         1 7R3      -0.721000
     26 O5          40.1670    47.6490    40.4050 oh         1 7R3      -0.699000
     27 O6          42.0980    49.6370    43.8130 oh         1 7R3      -0.702000
     28 O7          40.1380    57.2190    49.9980 os         1 7R3      -0.454000
     29 O8          38.5320    54.3100    50.0580 os         1 7R3      -0.340100
     30 Cl1         36.0120    48.2340    49.7580 cl         1 7R3      -0.201000
     31 H1          37.0820    47.7570    43.1170 h1         1 7R3       0.051700
     32 H2          41.0120    47.2370    42.9760 h1         1 7R3       0.064700
     33 H3          41.8820    49.2350    41.7780 h1         1 7R3       0.024700
     34 H4          40.6060    50.2370    42.4800 h1         1 7R3       0.024700
     35 H5          38.8160    45.6500    46.7030 ha         1 7R3       0.123000
     36 H6          35.4590    50.4770    46.2610 hc         1 7R3       0.057200
     37 H7          34.8220    49.8900    47.7660 hc         1 7R3       0.057200
     38 H8          37.6990    46.1200    48.8680 ha         1 7R3       0.132000
     39 H10         41.4200    55.6900    50.6000 h1         1 7R3       0.058200
     40 H11         38.0590    51.3970    46.4620 ha         1 7R3       0.115000
     41 H12         39.1340    45.7620    42.0300 h1         1 7R3       0.055700
     42 H13         38.7840    48.7620    41.4990 h1         1 7R3       0.049700
     43 H14         39.3870    46.2620    44.5030 h1         1 7R3       0.057700
     44 H15         37.1290    49.2700    45.0550 ha         1 7R3       0.122000
     45 H16         40.4060    54.1590    49.0820 h1         1 7R3       0.063700
     46 H17         38.2980    55.5950    47.8010 hc         1 7R3       0.064200
     47 H18         39.9780    56.0840    47.5680 hc         1 7R3       0.064200
     48 H19         38.9120    58.1040    48.5580 h1         1 7R3       0.048700
     49 H20         38.0720    57.1140    49.7930 h1         1 7R3       0.048700
     50 H21         35.1450    51.3280    49.6530 ha         1 7R3       0.115000
     51 H22         39.2870    53.1740    47.5890 ha         1 7R3       0.121500
     52 H23         36.3810    53.1330    50.8120 ha         1 7R3       0.121500
     53 H24         36.8620    45.8840    41.2160 ho         1 7R3       0.460000
     54 H25         36.4130    45.8870    44.3580 ho         1 7R3       0.518000
     55 H26         39.5220    47.2440    39.7780 ho         1 7R3       0.506000
     56 H27         42.5750    50.4790    43.6300 ho         1 7R3       0.503000
     57 C20         35.7630    50.1200    47.2520 c3         1 7R3       0.025200
     58 H9          39.8690    55.7680    51.4720 h1         1 7R3       0.058200
@<TRIPOS>BOND
     1     1    10 1   
     2     1    12 1   
     3     1    25 1   
     4     1    31 1   
     5     2     3 1   
     6     2    11 1   
     7     2    23 1   
     8     2    32 1   
     9     3    27 1   
    10     3    33 1   
    11     3    34 1   
    12     4     5 ar  
    13     4    13 ar  
    14     4    35 1   
    15     5     6 ar  
    16     5    38 1   
    17     6    15 ar  
    18     6    30 1   
    19     7    16 1   
    20     7    28 1   
    21     7    39 1   
    22     7    58 1   
    23     8     9 ar  
    24     8    20 ar  
    25     8    57 1   
    26     9    21 ar  
    27     9    40 1   
    28    10    11 1   
    29    10    24 1   
    30    10    41 1   
    31    11    26 1   
    32    11    42 1   
    33    12    13 1   
    34    12    23 1   
    35    12    43 1   
    36    13    14 ar  
    37    14    15 ar  
    38    14    44 1   
    39    15    57 1   
    40    16    17 1   
    41    16    29 1   
    42    16    45 1   
    43    17    18 1   
    44    17    46 1   
    45    17    47 1   
    46    18    28 1   
    47    18    48 1   
    48    18    49 1   
    49    19    21 ar  
    50    19    22 ar  
    51    19    29 1   
    52    20    22 ar  
    53    20    50 1   
    54    21    51 1   
    55    22    52 1   
    56    24    53 1   
    57    25    54 1   
    58    26    55 1   
    59    27    56 1   
    60    36    57 1   
    61    37    57 1   
@<TRIPOS>SUBSTRUCTURE
     1 7R3         1 TEMP              0 ****  ****    0 ROOT
