@<TRIPOS>MOLECULE
7R3
   58    61     1     0     0
SMALL
abcg2


@<TRIPOS>ATOM
      1 C10         37.7320    46.7860    43.3110 c6         1 7R3       0.100300
      2 C13         40.2100    48.1600    42.9070 c6         1 7R3       0.133300
      3 C15         40.9690    49.4510    42.6900 c3         1 7R3       0.171600
      4 C17         38.0830    46.5160    46.7730 ca         1 7R3      -0.086000
      5 C21         37.4300    46.7650    47.9710 ca         1 7R3      -0.107000
      6 C22         36.7080    47.9360    48.1250 ca         1 7R3       0.135000
      7 C24         40.3260    55.8860    50.4300 c5         1 7R3       0.157600
      8 C26         36.6220    51.2280    47.9670 ca         1 7R3      -0.116300
      9 C28         37.7930    51.7420    47.4230 ca         1 7R3      -0.063500
     10 C09         38.5050    46.5620    42.0160 c6         1 7R3       0.176300
     11 C11         39.3400    47.7930    41.6940 c6         1 7R3       0.145300
     12 C12         38.7110    47.1660    44.4280 c6         1 7R3       0.188600
     13 C14         38.0100    47.4280    45.7300 ca         1 7R3      -0.086300
     14 C16         37.2590    48.5860    45.9050 ca         1 7R3      -0.081000
     15 C18         36.6000    48.8710    47.0960 ca         1 7R3      -0.072300
     16 C19         39.7810    54.9380    49.3790 c5         1 7R3       0.137300
     17 C23         39.3200    55.9290    48.3170 c5         1 7R3      -0.146400
     18 C25         38.7900    57.0820    49.1650 c5         1 7R3       0.158600
     19 C27         38.0600    53.2730    49.2610 ca         1 7R3       0.143100
     20 C29         36.1890    51.7550    49.1810 ca         1 7R3      -0.063500
     21 C30         38.5110    52.7520    48.0490 ca         1 7R3      -0.171000
     22 C31         36.8900    52.7630    49.8210 ca         1 7R3      -0.171000
     23 O2          39.4110    48.3290    44.0590 os         1 7R3      -0.431000
     24 O3          37.6510    46.3120    40.9310 oh         1 7R3      -0.647000
     25 O4          37.0410    45.5970    43.6060 oh         1 7R3      -0.721000
     26 O5          40.1350    47.5020    40.5690 oh         1 7R3      -0.699000
     27 O6          41.7990    49.6830    43.8020 oh         1 7R3      -0.702000
     28 O7          39.4990    57.0330    50.3980 os         1 7R3      -0.454000
     29 O8          38.6870    54.2430    49.9610 os         1 7R3      -0.340100
     30 CL1         35.9200    48.2240    49.6440 cl         1 7R3      -0.201000
     31 H1          37.0350    47.6240    43.1600 h1         1 7R3       0.051700
     32 H2          40.9310    47.3410    43.0690 h1         1 7R3       0.064700
     33 H3          41.5510    49.3630    41.7660 h1         1 7R3       0.024700
     34 H4          40.2460    50.2660    42.5410 h1         1 7R3       0.024700
     35 H5          38.6580    45.6050    46.6640 ha         1 7R3       0.123000
     36 H6          35.5770    50.5180    46.2450 hc         1 7R3       0.057200
     37 H7          34.8920    49.9840    47.7610 hc         1 7R3       0.057200
     38 H8          37.4910    46.0520    48.7830 ha         1 7R3       0.132000
     39 H10         41.3630    56.1380    50.1770 h1         1 7R3       0.058200
     40 H11         38.1630    51.3580    46.4790 ha         1 7R3       0.115000
     41 H12         39.1950    45.7160    42.1800 h1         1 7R3       0.055700
     42 H13         38.6540    48.6290    41.4930 h1         1 7R3       0.049700
     43 H14         39.4120    46.3260    44.5640 h1         1 7R3       0.057700
     44 H15         37.1760    49.3020    45.0950 ha         1 7R3       0.122000
     45 H16         40.5490    54.2410    49.0300 h1         1 7R3       0.063700
     46 H17         38.5740    55.5290    47.6300 hc         1 7R3       0.064200
     47 H18         40.1820    56.2400    47.7240 hc         1 7R3       0.064200
     48 H19         38.9470    58.0500    48.6830 h1         1 7R3       0.048700
     49 H20         37.7170    56.9740    49.3550 h1         1 7R3       0.048700
     50 H21         35.2800    51.3800    49.6360 ha         1 7R3       0.115000
     51 H22         39.4110    53.1180    47.5730 ha         1 7R3       0.121500
     52 H23         36.5320    53.1640    50.7620 ha         1 7R3       0.121500
     53 H24         37.1040    45.5510    41.1540 ho         1 7R3       0.460000
     54 H25         36.3180    45.7960    44.2090 ho         1 7R3       0.518000
     55 H26         40.2810    48.3100    40.0700 ho         1 7R3       0.506000
     56 H27         42.3040    50.4840    43.6350 ho         1 7R3       0.503000
     57 C20         35.8360    50.1600    47.2430 c3         1 7R3       0.025200
     58 H9          40.3210    55.4530    51.4330 h1         1 7R3       0.058200
@<TRIPOS>BOND
     1     1    10 1   
     2     1    12 1   
     3     1    25 1   
     4     1    31 1   
     5     2     3 1   
     6     2    11 1   
     7     2    23 1   
     8     2    32 1   
     9     3    27 1   
    10     3    33 1   
    11     3    34 1   
    12     4     5 ar  
    13     4    13 ar  
    14     4    35 1   
    15     5     6 ar  
    16     5    38 1   
    17     6    15 ar  
    18     6    30 1   
    19     7    16 1   
    20     7    28 1   
    21     7    39 1   
    22     7    58 1   
    23     8     9 ar  
    24     8    20 ar  
    25     8    57 1   
    26     9    21 ar  
    27     9    40 1   
    28    10    11 1   
    29    10    24 1   
    30    10    41 1   
    31    11    26 1   
    32    11    42 1   
    33    12    13 1   
    34    12    23 1   
    35    12    43 1   
    36    13    14 ar  
    37    14    15 ar  
    38    14    44 1   
    39    15    57 1   
    40    16    17 1   
    41    16    29 1   
    42    16    45 1   
    43    17    18 1   
    44    17    46 1   
    45    17    47 1   
    46    18    28 1   
    47    18    48 1   
    48    18    49 1   
    49    19    21 ar  
    50    19    22 ar  
    51    19    29 1   
    52    20    22 ar  
    53    20    50 1   
    54    21    51 1   
    55    22    52 1   
    56    24    53 1   
    57    25    54 1   
    58    26    55 1   
    59    27    56 1   
    60    36    57 1   
    61    37    57 1   
@<TRIPOS>SUBSTRUCTURE
     1 7R3         1 TEMP              0 ****  ****    0 ROOT
