@<TRIPOS>MOLECULE
7R4
   23    24     1     0     0
SMALL
abcg2


@<TRIPOS>ATOM
      1 C9           4.3920     1.0410     0.3430 ca         1 7R4      -0.100000
      2 C8           3.5030     1.6410    -0.5370 ca         1 7R4      -0.108000
      3 C10          4.1310    -0.2380     0.8190 ca         1 7R4      -0.108000
      4 C7           2.3560     0.9660    -0.9370 ca         1 7R4      -0.097500
      5 C11          2.9860    -0.9090     0.4170 ca         1 7R4      -0.097500
      6 C6           2.0850    -0.3150    -0.4650 ca         1 7R4      -0.103300
      7 C2          -1.5110    -1.6700    -0.1410 c          1 7R4       0.562000
      8 C13         -2.3910     0.4610     0.3370 cs         1 7R4       0.327000
      9 C3          -0.2290    -0.9580     0.2460 c5         1 7R4      -0.065700
     10 C5           0.8250    -1.0320    -0.8600 c3         1 7R4      -0.005100
     11 N12         -2.5920    -0.8260    -0.0430 ns         1 7R4      -0.405500
     12 S14         -3.5550     1.5950     0.4930 s          1 7R4      -0.398400
     13 S4          -0.7070     0.7540     0.6380 ss         1 7R4      -0.127600
     14 H1           5.2860     1.5650     0.6560 ha         1 7R4       0.116000
     15 H2           3.7010     2.6350    -0.9160 ha         1 7R4       0.116500
     16 H3           4.8220    -0.7150     1.5020 ha         1 7R4       0.116500
     17 H4           1.6690     1.4400    -1.6270 ha         1 7R4       0.114500
     18 H5           2.7910    -1.9080     0.7910 ha         1 7R4       0.114500
     19 H6           0.1500    -1.4250     1.1590 h1         1 7R4       0.118700
     20 H7           0.4160    -0.6140    -1.7820 hc         1 7R4       0.069700
     21 H8           1.0340    -2.0880    -1.0460 hc         1 7R4       0.069700
     22 H9          -3.5250    -1.1490    -0.2700 hn         1 7R4       0.362500
     23 O1          -1.5760    -2.8170    -0.4960 o          1 7R4      -0.472000
@<TRIPOS>BOND
     1     1     2 ar  
     2     1     3 ar  
     3     1    14 1   
     4     2     4 ar  
     5     2    15 1   
     6     3     5 ar  
     7     3    16 1   
     8     4     6 ar  
     9     4    17 1   
    10     5     6 ar  
    11     5    18 1   
    12     6    10 1   
    13     7     9 1   
    14     7    11 1   
    15     7    23 2   
    16     8    11 1   
    17     8    12 2   
    18     8    13 1   
    19     9    10 1   
    20     9    13 1   
    21     9    19 1   
    22    10    20 1   
    23    10    21 1   
    24    11    22 1   
@<TRIPOS>SUBSTRUCTURE
     1 7R4         1 TEMP              0 ****  ****    0 ROOT
