@<TRIPOS>MOLECULE
7R4
   23    24     1     0     0
SMALL
No Charge or Current Charge


@<TRIPOS>ATOM
      1 C9           4.4840     1.0190     0.3180 ca         1 7R4      -0.100000
      2 C8           3.6160     1.6370    -0.5970 ca         1 7R4      -0.108000
      3 C10          4.1590    -0.2390     0.8520 ca         1 7R4      -0.108000
      4 C7           2.4230     0.9980    -0.9780 ca         1 7R4      -0.097500
      5 C11          2.9670    -0.8780     0.4720 ca         1 7R4      -0.097500
      6 C6           2.0910    -0.2640    -0.4450 ca         1 7R4      -0.103300
      7 C2          -1.5440    -1.7290    -0.1500 c          1 7R4       0.562000
      8 C13         -2.4900     0.4240     0.3720 cs         1 7R4       0.327000
      9 C3          -0.2700    -0.9730     0.2710 c5         1 7R4      -0.065700
     10 C5           0.7970    -0.9600    -0.8510 c3         1 7R4      -0.005100
     11 N12         -2.5880    -0.8640    -0.0350 ns         1 7R4      -0.405500
     12 S14         -3.7560     1.5010     0.5140 s          1 7R4      -0.398400
     13 S4          -0.7890     0.7690     0.7110 ss         1 7R4      -0.127600
     14 H1           5.4070     1.5140     0.6130 ha         1 7R4       0.116000
     15 H2           3.8660     2.6120    -1.0110 ha         1 7R4       0.116500
     16 H3           4.8310    -0.7180     1.5610 ha         1 7R4       0.116500
     17 H4           1.7560     1.4870    -1.6850 ha         1 7R4       0.114500
     18 H5           2.7240    -1.8530     0.8900 ha         1 7R4       0.114500
     19 H6           0.1280    -1.4680     1.1650 h1         1 7R4       0.118700
     20 H7           0.3780    -0.4860    -1.7490 hc         1 7R4       0.069700
     21 H8           1.0260    -1.9920    -1.1460 hc         1 7R4       0.069700
     22 H9          -3.5030    -1.2200    -0.2780 hn         1 7R4       0.362500
     23 O1          -1.6540    -2.8840    -0.5310 o          1 7R4      -0.472000
@<TRIPOS>BOND
     1     1     2 ar  
     2     1     3 ar  
     3     1    14 1   
     4     2     4 ar  
     5     2    15 1   
     6     3     5 ar  
     7     3    16 1   
     8     4     6 ar  
     9     4    17 1   
    10     5     6 ar  
    11     5    18 1   
    12     6    10 1   
    13     7     9 1   
    14     7    11 1   
    15     7    23 2   
    16     8    11 1   
    17     8    12 2   
    18     8    13 1   
    19     9    10 1   
    20     9    13 1   
    21     9    19 1   
    22    10    20 1   
    23    10    21 1   
    24    11    22 1   
@<TRIPOS>SUBSTRUCTURE
     1 7R4         1 TEMP              0 ****  ****    0 ROOT
