@<TRIPOS>MOLECULE
7R5
   44    47     1     0     0
SMALL
No Charge or Current Charge


@<TRIPOS>ATOM
      1 C02         12.8780    -2.1070    15.7380 c          1 7R5       0.593100
      2 C04         14.8230    -0.4510    15.4580 ca         1 7R5       0.033000
      3 C05         15.9180    -1.3070    15.7020 ca         1 7R5      -0.189000
      4 C06         17.2220    -0.7850    15.7010 ca         1 7R5       0.361900
      5 C08         16.4480     1.3440    15.2310 ca         1 7R5       0.374900
      6 C09         15.1080     0.9070    15.2120 ca         1 7R5      -0.010000
      7 C11         11.3700    -2.1630    15.4770 c3         1 7R5      -0.002400
      8 C13         10.1370    -4.0110    14.2180 cc         1 7R5      -0.193000
      9 C14         10.1160    -4.4300    12.9100 cd         1 7R5      -0.081000
     10 C15         10.9930    -3.6170    12.1580 cd         1 7R5      -0.300600
     11 C16         11.5480    -2.7040    12.9940 cc         1 7R5       0.183400
     12 C18         12.7560    -1.8090    11.3020 cd         1 7R5       0.748800
     13 C20         14.1840     0.2230    11.7090 c6         1 7R5       0.182300
     14 C21         14.8160     1.3970    10.9100 c6         1 7R5       0.141600
     15 C23         15.2540    -0.0140     9.0160 c6         1 7R5       0.141600
     16 C24         14.6470    -1.2590     9.7280 c6         1 7R5       0.182300
     17 C26         11.3310    -3.6430    10.7330 c          1 7R5       0.623600
     18 N03         13.4710    -0.8910    15.4240 ns         1 7R5      -0.150000
     19 N07         17.4950     0.5180    15.4710 nb         1 7R5      -0.673000
     20 N12         11.0330    -2.9350    14.2700 na         1 7R5       0.023000
     21 N17         12.4520    -1.7540    12.5910 nc         1 7R5      -0.728100
     22 N19         13.6850    -0.8850    10.8220 nh         1 7R5      -0.752600
     23 N25         12.2310    -2.6840    10.4110 ns         1 7R5      -0.454400
     24 O01         13.4860    -3.0660    16.2020 o          1 7R5      -0.533100
     25 O22         15.8080     0.9090     9.9800 os         1 7R5      -0.437000
     26 Cl10        13.8110     2.0620    14.8830 cl         1 7R5      -0.197000
     27 H051        15.7930    -2.3680    15.8830 ha         1 7R5       0.161000
     28 H061        18.0780    -1.4340    15.8860 h4         1 7R5       0.027100
     29 H081        16.6900     2.3890    15.0450 h4         1 7R5       0.033100
     30 H111        10.9850    -1.1430    15.3650 h1         1 7R5       0.083200
     31 H112        10.8920    -2.6190    16.3500 h1         1 7R5       0.083200
     32 H131         9.6060    -4.3780    15.0880 h4         1 7R5       0.148000
     33 H141         9.5210    -5.2530    12.5210 ha         1 7R5       0.148000
     34 H202        14.9340    -0.1720    12.4110 h1         1 7R5       0.062950
     35 H201        13.3630     0.6360    12.3130 h1         1 7R5       0.062950
     36 H212        15.2880     2.1070    11.6030 h1         1 7R5       0.058200
     37 H211        14.0330     1.9330    10.3550 h1         1 7R5       0.058200
     38 H232        14.4750     0.4970     8.4320 h1         1 7R5       0.058200
     39 H231        16.0460    -0.3300     8.3230 h1         1 7R5       0.058200
     40 H241        14.1660    -1.8800     8.9600 h1         1 7R5       0.062950
     41 H242        15.4690    -1.8560    10.1490 h1         1 7R5       0.062950
     42 H031        12.8290    -0.1950    15.0670 hn         1 7R5       0.164000
     43 H251        12.4950    -2.6240     9.4440 hn         1 7R5       0.322500
     44 O27         10.8710    -4.4230     9.9150 o          1 7R5      -0.544000
@<TRIPOS>BOND
     1     1     7 1   
     2     1    18 1   
     3     1    24 2   
     4     2     3 ar  
     5     2     6 ar  
     6     2    18 1   
     7     3     4 ar  
     8     3    27 1   
     9     4    19 ar  
    10     4    28 1   
    11     5     6 ar  
    12     5    19 ar  
    13     5    29 1   
    14     6    26 1   
    15     7    20 1   
    16     7    30 1   
    17     7    31 1   
    18     8     9 2   
    19     8    20 1   
    20     8    32 1   
    21     9    10 1   
    22     9    33 1   
    23    10    11 2   
    24    10    17 1   
    25    11    20 1   
    26    11    21 1   
    27    12    21 2   
    28    12    22 1   
    29    12    23 1   
    30    13    14 1   
    31    13    22 1   
    32    13    34 1   
    33    13    35 1   
    34    14    25 1   
    35    14    36 1   
    36    14    37 1   
    37    15    16 1   
    38    15    25 1   
    39    15    38 1   
    40    15    39 1   
    41    16    22 1   
    42    16    40 1   
    43    16    41 1   
    44    17    23 1   
    45    17    44 2   
    46    18    42 1   
    47    23    43 1   
@<TRIPOS>SUBSTRUCTURE
     1 7R5         1 TEMP              0 ****  ****    0 ROOT
