@<TRIPOS>MOLECULE
7R5
   44    47     1     0     0
SMALL
abcg2


@<TRIPOS>ATOM
      1 C02         13.2370    -1.5690    15.3060 c          1 7R5       0.593100
      2 C04         14.9240    -0.3750    16.6650 ca         1 7R5       0.033000
      3 C05         15.8770    -1.3890    16.7770 ca         1 7R5      -0.189000
      4 C06         17.0510    -1.1380    17.4650 ca         1 7R5       0.361900
      5 C08         16.4580     0.9910    17.9370 ca         1 7R5       0.374900
      6 C09         15.2540     0.8450    17.2710 ca         1 7R5      -0.010000
      7 C11         11.8220    -1.3440    14.7850 c3         1 7R5      -0.002400
      8 C13         10.6710    -3.5140    14.2710 cc         1 7R5      -0.193000
      9 C14         10.5720    -4.3480    13.2020 cd         1 7R5      -0.081000
     10 C15         11.2960    -3.7290    12.1410 cd         1 7R5      -0.300600
     11 C16         11.8090    -2.5340    12.6280 cc         1 7R5       0.183400
     12 C18         12.8310    -1.9380    10.7370 cd         1 7R5       0.748800
     13 C20         14.2440     0.0220    10.6390 c6         1 7R5       0.182300
     14 C21         14.3800     1.2010     9.6970 c6         1 7R5       0.141600
     15 C23         14.2430    -0.1520     7.8330 c6         1 7R5       0.141600
     16 C24         14.0940    -1.4100     8.6720 c6         1 7R5       0.182300
     17 C26         11.6000    -4.0770    10.7960 c          1 7R5       0.623600
     18 N03         13.7100    -0.5030    16.0170 ns         1 7R5      -0.150000
     19 N07         17.3520     0.0200    18.0390 nb         1 7R5      -0.673000
     20 N12         11.4120    -2.4010    13.9150 na         1 7R5       0.023000
     21 N17         12.5670    -1.6350    11.9820 nc         1 7R5      -0.728100
     22 N19         13.5470    -1.0740     9.9770 nh         1 7R5      -0.752600
     23 N25         12.3840    -3.0980    10.1680 ns         1 7R5      -0.454400
     24 O01         13.8480    -2.5910    15.1030 o          1 7R5      -0.533100
     25 O22         14.9980     0.8360     8.4850 os         1 7R5      -0.437000
     26 CL10        14.1740     2.1930    17.2030 cl         1 7R5      -0.197000
     27 H051        15.7160    -2.3620    16.3440 ha         1 7R5       0.161000
     28 H061        17.7860    -1.9290    17.5520 h4         1 7R5       0.027100
     29 H081        16.6970     1.9400    18.4020 h4         1 7R5       0.033100
     30 H111        11.7650    -0.3860    14.2650 h1         1 7R5       0.083200
     31 H112        11.1330    -1.2880    15.6310 h1         1 7R5       0.083200
     32 H131        10.2660    -3.5990    15.2670 h4         1 7R5       0.148000
     33 H141        10.0410    -5.2860    13.1750 ha         1 7R5       0.148000
     34 H202        15.2330    -0.3150    10.9710 h1         1 7R5       0.062950
     35 H201        13.6860     0.3300    11.5180 h1         1 7R5       0.062950
     36 H212        14.9980     1.9670    10.1670 h1         1 7R5       0.058200
     37 H211        13.3880     1.6340     9.5080 h1         1 7R5       0.058200
     38 H232        13.2450     0.2280     7.5790 h1         1 7R5       0.058200
     39 H231        14.7550    -0.4050     6.9040 h1         1 7R5       0.058200
     40 H241        13.4310    -2.0700     8.1150 h1         1 7R5       0.062950
     41 H242        15.0600    -1.9160     8.7800 h1         1 7R5       0.062950
     42 H031        13.0940     0.2960    16.0800 hn         1 7R5       0.164000
     43 H251        12.6330    -3.3180     9.2150 hn         1 7R5       0.322500
     44 O27         11.2740    -5.0790    10.1780 o          1 7R5      -0.544000
@<TRIPOS>BOND
     1     1     7 1   
     2     1    18 1   
     3     1    24 2   
     4     2     3 ar  
     5     2     6 ar  
     6     2    18 1   
     7     3     4 ar  
     8     3    27 1   
     9     4    19 ar  
    10     4    28 1   
    11     5     6 ar  
    12     5    19 ar  
    13     5    29 1   
    14     6    26 1   
    15     7    20 1   
    16     7    30 1   
    17     7    31 1   
    18     8     9 2   
    19     8    20 1   
    20     8    32 1   
    21     9    10 1   
    22     9    33 1   
    23    10    11 2   
    24    10    17 1   
    25    11    20 1   
    26    11    21 1   
    27    12    21 2   
    28    12    22 1   
    29    12    23 1   
    30    13    14 1   
    31    13    22 1   
    32    13    34 1   
    33    13    35 1   
    34    14    25 1   
    35    14    36 1   
    36    14    37 1   
    37    15    16 1   
    38    15    25 1   
    39    15    38 1   
    40    15    39 1   
    41    16    22 1   
    42    16    40 1   
    43    16    41 1   
    44    17    23 1   
    45    17    44 2   
    46    18    42 1   
    47    23    43 1   
@<TRIPOS>SUBSTRUCTURE
     1 7R5         1 TEMP              0 ****  ****    0 ROOT
