@<TRIPOS>MOLECULE
7R7
   28    29     1     0     0
SMALL
No Charge or Current Charge


@<TRIPOS>ATOM
      1 C17         -0.4260     1.1570    -0.0000 ca         1 7R7      -0.007000
      2 C16         -1.6990     1.7230     0.1730 ca         1 7R7      -0.239000
      3 C12         -2.7120    -0.4570    -0.1490 ca         1 7R7      -0.243000
      4 C8          -0.2820    -0.2230    -0.2560 ca         1 7R7      -0.186300
      5 C13         -2.8470     0.9140     0.0970 ca         1 7R7       0.199100
      6 C9          -1.4370    -1.0320    -0.3240 ca         1 7R7       0.208100
      7 C2           1.8130    -1.1370     0.9050 c          1 7R7       0.538000
      8 C4           3.1190     0.2800    -0.3800 cs         1 7R7       0.519500
      9 C7           1.1110    -0.8410    -0.4330 c5         1 7R7       0.129600
     10 C15         -4.3720     2.8080     0.5160 c3         1 7R7       0.146900
     11 C11         -2.3850    -3.2950    -0.6350 c3         1 7R7       0.149900
     12 N3           2.9450    -0.4280     0.7500 ns         1 7R7      -0.448500
     13 O5           2.0000     0.0910    -1.1310 os         1 7R7      -0.346100
     14 O14         -4.1220     1.4150     0.2590 os         1 7R7      -0.338100
     15 O10         -1.2740    -2.3840    -0.5580 os         1 7R7      -0.343100
     16 S6           4.4300     1.2420    -0.7440 s          1 7R7      -0.450400
     17 H1           0.4510     1.7990     0.0670 ha         1 7R7       0.126000
     18 H2          -1.7700     2.7890     0.3670 ha         1 7R7       0.126000
     19 H3          -3.6140    -1.0580    -0.1990 ha         1 7R7       0.137000
     20 H4           1.0840    -1.7800    -1.0000 h1         1 7R7       0.123700
     21 H5          -5.4500     2.9900     0.6100 h1         1 7R7       0.045367
     22 H6          -3.8920     3.1250     1.4500 h1         1 7R7       0.045367
     23 H7          -3.9930     3.4300    -0.3050 h1         1 7R7       0.045367
     24 H8          -2.9500    -3.3040     0.3060 h1         1 7R7       0.047033
     25 H9          -3.0630    -3.0160    -1.4520 h1         1 7R7       0.047033
     26 H10         -2.0270    -4.3150    -0.8250 h1         1 7R7       0.047033
     27 H11          3.6440    -0.4190     1.4780 hn         1 7R7       0.373500
     28 O1           1.4920    -1.8040     1.8770 o          1 7R7      -0.452000
@<TRIPOS>BOND
     1     1     2 ar  
     2     1     4 ar  
     3     1    17 1   
     4     2     5 ar  
     5     2    18 1   
     6     3     5 ar  
     7     3     6 ar  
     8     3    19 1   
     9     4     6 ar  
    10     4     9 1   
    11     5    14 1   
    12     6    15 1   
    13     7     9 1   
    14     7    12 1   
    15     7    28 2   
    16     8    12 1   
    17     8    13 1   
    18     8    16 2   
    19     9    13 1   
    20     9    20 1   
    21    10    14 1   
    22    10    21 1   
    23    10    22 1   
    24    10    23 1   
    25    11    15 1   
    26    11    24 1   
    27    11    25 1   
    28    11    26 1   
    29    12    27 1   
@<TRIPOS>SUBSTRUCTURE
     1 7R7         1 TEMP              0 ****  ****    0 ROOT
