@<TRIPOS>MOLECULE
7R7
   28    29     1     0     0
SMALL
abcg2


@<TRIPOS>ATOM
      1 C17         -0.4510     1.1770    -0.0950 ca         1 7R7      -0.007000
      2 C16         -1.7030     1.7440     0.1110 ca         1 7R7      -0.239000
      3 C12         -2.6850    -0.4520    -0.1150 ca         1 7R7      -0.243000
      4 C8          -0.2900    -0.1790    -0.3140 ca         1 7R7      -0.186300
      5 C13         -2.8240     0.9220     0.1010 ca         1 7R7       0.199100
      6 C9          -1.4290    -1.0010    -0.3170 ca         1 7R7       0.208100
      7 C2           1.7120    -1.2210     0.7930 c          1 7R7       0.538000
      8 C4           3.0460     0.2820    -0.2590 cs         1 7R7       0.519500
      9 C7           1.0620    -0.8000    -0.5150 c5         1 7R7       0.129600
     10 C15         -4.2960     2.7340     0.5140 c3         1 7R7       0.146900
     11 C11         -2.3110    -3.1970    -0.5420 c3         1 7R7       0.149900
     12 N3           2.8890    -0.5170     0.8260 ns         1 7R7      -0.448500
     13 O5           1.9970     0.1390    -1.0560 os         1 7R7      -0.346100
     14 O14         -4.0820     1.3530     0.2870 os         1 7R7      -0.338100
     15 O10         -1.2100    -2.3080    -0.5230 os         1 7R7      -0.343100
     16 S6           4.2980     1.2740    -0.5840 s          1 7R7      -0.450400
     17 H1           0.4080     1.8350    -0.0930 ha         1 7R7       0.126000
     18 H2          -1.7750     2.8100     0.2700 ha         1 7R7       0.126000
     19 H3          -3.5750    -1.0670    -0.1180 ha         1 7R7       0.137000
     20 H4           1.0180    -1.6590    -1.1900 h1         1 7R7       0.123700
     21 H5          -5.3680     2.8610     0.6450 h1         1 7R7       0.045367
     22 H6          -3.7860     3.0800     1.4160 h1         1 7R7       0.045367
     23 H7          -3.9680     3.3410    -0.3330 h1         1 7R7       0.045367
     24 H8          -2.8460    -3.1980     0.4110 h1         1 7R7       0.047033
     25 H9          -3.0140    -2.9580    -1.3440 h1         1 7R7       0.047033
     26 H10         -1.9010    -4.1880    -0.7160 h1         1 7R7       0.047033
     27 H11          3.5610    -0.5540     1.5820 hn         1 7R7       0.373500
     28 O1           1.2950    -1.9830     1.6200 o          1 7R7      -0.452000
@<TRIPOS>BOND
     1     1     2 ar  
     2     1     4 ar  
     3     1    17 1   
     4     2     5 ar  
     5     2    18 1   
     6     3     5 ar  
     7     3     6 ar  
     8     3    19 1   
     9     4     6 ar  
    10     4     9 1   
    11     5    14 1   
    12     6    15 1   
    13     7     9 1   
    14     7    12 1   
    15     7    28 2   
    16     8    12 1   
    17     8    13 1   
    18     8    16 2   
    19     9    13 1   
    20     9    20 1   
    21    10    14 1   
    22    10    21 1   
    23    10    22 1   
    24    10    23 1   
    25    11    15 1   
    26    11    24 1   
    27    11    25 1   
    28    11    26 1   
    29    12    27 1   
@<TRIPOS>SUBSTRUCTURE
     1 7R7         1 TEMP              0 ****  ****    0 ROOT
