@<TRIPOS>MOLECULE
7R8
   24    25     1     0     0
SMALL
abcg2


@<TRIPOS>ATOM
      1 C4         -29.5350    17.6510    -9.6540 ca         1 7R8      -0.121000
      2 C3         -30.5600    18.5570    -9.6510 ca         1 7R8      -0.081000
      3 C2         -30.9530    19.2190   -10.8390 ca         1 7R8      -0.161900
      4 C1         -30.2850    18.9360   -12.0060 ca         1 7R8      -0.030000
      5 C6         -29.2180    18.0170   -12.0350 ca         1 7R8      -0.081000
      6 C10        -28.5120    17.7260   -13.2280 ca         1 7R8      -0.056000
      7 C9         -27.4830    16.8320   -13.2380 ca         1 7R8      -0.134000
      8 C8         -27.0970    16.1750   -12.0430 ca         1 7R8       0.153100
      9 C7         -27.7610    16.4330   -10.8700 ca         1 7R8      -0.219000
     10 C5         -28.8290    17.3560   -10.8420 ca         1 7R8       0.017000
     11 C11        -32.0730    20.1990   -10.8510 ce         1 7R8       0.663800
     12 N2         -32.7260    20.3780   -11.9350 n2         1 7R8      -0.830100
     13 N1         -32.3370    20.7960    -9.6490 nv         1 7R8      -1.076200
     14 H1         -29.2580    17.1480    -8.7360 ha         1 7R8       0.114000
     15 H2         -31.0880    18.7440    -8.7250 ha         1 7R8       0.117000
     16 H3         -30.5740    19.4350   -12.9230 ha         1 7R8       0.136000
     17 H4         -25.8750    14.9160   -11.2880 ho         1 7R8       0.466000
     18 H5         -28.8020    18.2240   -14.1450 ha         1 7R8       0.120000
     19 H6         -26.9500    16.6150   -14.1550 ha         1 7R8       0.130000
     20 H7         -27.4710    15.9330    -9.9510 ha         1 7R8       0.115000
     21 H8         -33.4330    21.0990   -11.8220 hn         1 7R8       0.370400
     22 H9         -31.5790    20.9200    -8.9980 hn         1 7R8       0.459500
     23 H10        -32.9930    21.5610    -9.6500 hn         1 7R8       0.459500
     24 O1         -26.0690    15.3140   -12.1440 oh         1 7R8      -0.531100
@<TRIPOS>BOND
     1     1     2 ar  
     2     1    10 ar  
     3     1    14 1   
     4     2     3 ar  
     5     2    15 1   
     6     3     4 ar  
     7     3    11 1   
     8     4     5 ar  
     9     4    16 1   
    10     5     6 ar  
    11     5    10 ar  
    12     6     7 ar  
    13     6    18 1   
    14     7     8 ar  
    15     7    19 1   
    16     8     9 ar  
    17     8    24 1   
    18     9    10 ar  
    19     9    20 1   
    20    11    12 2   
    21    11    13 1   
    22    12    21 1   
    23    13    22 1   
    24    13    23 1   
    25    17    24 1   
@<TRIPOS>SUBSTRUCTURE
     1 7R8         1 TEMP              0 ****  ****    0 ROOT
