@<TRIPOS>MOLECULE
7R8
   24    25     1     0     0
SMALL
No Charge or Current Charge


@<TRIPOS>ATOM
      1 C4         -29.4910    17.6460    -9.6660 ca         1 7R8      -0.121000
      2 C3         -30.5520    18.5680    -9.6520 ca         1 7R8      -0.081000
      3 C2         -30.9420    19.2390   -10.8360 ca         1 7R8      -0.161900
      4 C1         -30.2630    18.9330   -12.0390 ca         1 7R8      -0.030000
      5 C6         -29.1990    18.0100   -12.0540 ca         1 7R8      -0.081000
      6 C10        -28.5230    17.7250   -13.2560 ca         1 7R8      -0.056000
      7 C9         -27.4620    16.8030   -13.2630 ca         1 7R8      -0.134000
      8 C8         -27.0760    16.1640   -12.0750 ca         1 7R8       0.153100
      9 C7         -27.7470    16.4430   -10.8750 ca         1 7R8      -0.219000
     10 C5         -28.8090    17.3660   -10.8610 ca         1 7R8       0.017000
     11 C11        -32.0920    20.2010   -10.8470 ce         1 7R8       0.663800
     12 N2         -32.6920    20.5580   -11.9060 n2         1 7R8      -0.830100
     13 N1         -32.4360    20.7970    -9.6860 nv         1 7R8      -1.076200
     14 H1         -29.2040    17.1450    -8.7440 ha         1 7R8       0.114000
     15 H2         -31.0730    18.7450    -8.7140 ha         1 7R8       0.117000
     16 H3         -30.5560    19.4210   -12.9660 ha         1 7R8       0.136000
     17 H4         -25.9230    14.9300   -11.1790 ho         1 7R8       0.466000
     18 H5         -28.8150    18.2160   -14.1820 ha         1 7R8       0.120000
     19 H6         -26.9390    16.5840   -14.1910 ha         1 7R8       0.130000
     20 H7         -27.4500    15.9470    -9.9540 ha         1 7R8       0.115000
     21 H8         -33.5490    21.0520   -11.6320 hn         1 7R8       0.370400
     22 H9         -31.7480    20.7120    -8.9470 hn         1 7R8       0.459500
     23 H10        -32.8740    21.7070    -9.7620 hn         1 7R8       0.459500
     24 O1         -26.0470    15.2720   -12.0910 oh         1 7R8      -0.531100
@<TRIPOS>BOND
     1     1     2 ar  
     2     1    10 ar  
     3     1    14 1   
     4     2     3 ar  
     5     2    15 1   
     6     3     4 ar  
     7     3    11 1   
     8     4     5 ar  
     9     4    16 1   
    10     5     6 ar  
    11     5    10 ar  
    12     6     7 ar  
    13     6    18 1   
    14     7     8 ar  
    15     7    19 1   
    16     8     9 ar  
    17     8    24 1   
    18     9    10 ar  
    19     9    20 1   
    20    11    12 2   
    21    11    13 1   
    22    12    21 1   
    23    13    22 1   
    24    13    23 1   
    25    17    24 1   
@<TRIPOS>SUBSTRUCTURE
     1 7R8         1 TEMP              0 ****  ****    0 ROOT
