@<TRIPOS>MOLECULE
7R9
   74    77     1     0     0
SMALL
No Charge or Current Charge


@<TRIPOS>ATOM
      1 C36         -6.6990     0.8030     0.5970 cc         1 7R9      -0.053000
      2 C35         -7.7710    -0.1230     0.5280 cc         1 7R9      -0.134000
      3 C34         -7.4470    -1.3670     0.9990 cd         1 7R9      -0.012000
      4 Cl          -8.5180    -2.7300     1.0590 cl         1 7R9      -0.132000
      5 S33         -5.7660    -1.4400     1.5600 ss         1 7R9       0.251000
      6 C32         -5.5460     0.2690     1.1250 cd         1 7R9      -0.289600
      7 C31         -4.2940     1.0340     1.2920 c          1 7R9       0.651700
      8 O42         -4.1690     2.2090     0.9780 o          1 7R9      -0.608100
      9 N30         -3.2680     0.3050     1.8410 ns         1 7R9      -0.493900
     10 C22         -1.8980     0.8050     2.0140 c3         1 7R9       0.122000
     11 C19         -1.1120     0.8440     0.6810 c3         1 7R9       0.100500
     12 C20          0.2660     1.5520     0.9230 c          1 7R9       0.573100
     13 O41          1.0030     1.1750     1.8270 o          1 7R9      -0.614100
     14 N21          0.6770     2.6100     0.0830 n          1 7R9      -0.398800
     15 C23          1.9910     3.2740     0.2440 c5         1 7R9       0.095000
     16 C26         -0.1690     3.2650    -0.9380 c5         1 7R9       0.097000
     17 C25          0.8670     4.1300    -1.7010 c5         1 7R9      -0.093400
     18 C24          1.7890     4.6050    -0.5450 c5         1 7R9       0.158500
     19 N27          3.1060     5.0540    -1.1160 n3         1 7R9      -0.706600
     20 C29          3.0160     6.1890    -2.0680 c3         1 7R9       0.146100
     21 C28          4.1570     5.3130    -0.1000 c3         1 7R9       0.146100
     22 N18         -0.9900    -0.5610     0.1500 n7         1 7R9      -0.851300
     23 S17         -0.6030    -0.8080    -1.4550 sy         1 7R9       1.159600
     24 O38         -0.7480    -2.2510    -1.6550 o          1 7R9      -0.534000
     25 O39         -1.3960     0.1480    -2.2300 o          1 7R9      -0.534000
     26 C9           1.1270    -0.3470    -1.4950 ca         1 7R9      -0.310500
     27 C8           2.0380    -0.8700    -0.5550 ca         1 7R9       0.209100
     28 O13          1.5820    -1.8130     0.3440 os         1 7R9      -0.424100
     29 C14          1.9430    -3.2080     0.2010 c3         1 7R9       0.409300
     30 F16          1.9800    -3.5800    -1.1000 f          1 7R9      -0.117000
     31 F15          3.1690    -3.4630     0.7090 f          1 7R9      -0.117000
     32 C10          1.5720     0.5540    -2.4820 ca         1 7R9      -0.008000
     33 C11          2.9200     0.9320    -2.5260 ca         1 7R9      -0.127000
     34 C12          3.8160     0.4590    -1.5580 ca         1 7R9      -0.037000
     35 C7           3.3740    -0.3810    -0.5140 ca         1 7R9      -0.062000
     36 N3           4.3410    -0.8590     0.4460 n          1 7R9      -0.248400
     37 C2           4.0240    -0.5820     1.8780 c6         1 7R9       0.113000
     38 C1           4.8990    -1.3300     2.9050 c6         1 7R9      -0.090400
     39 C6           6.3780    -1.2900     2.4960 c6         1 7R9      -0.073400
     40 C5           6.5340    -1.9860     1.1320 c6         1 7R9      -0.154400
     41 C4           5.5470    -1.5060     0.0540 c          1 7R9       0.573000
     42 O40          5.8270    -1.6830    -1.1260 o          1 7R9      -0.551000
     43 H36         -6.8000     1.8310     0.2590 ha         1 7R9       0.156000
     44 H35         -8.7470     0.1440     0.1360 ha         1 7R9       0.151000
     45 H30         -3.4500    -0.6700     2.0330 hn         1 7R9       0.325500
     46 H221        -1.9420     1.8160     2.4420 h1         1 7R9       0.066700
     47 H222        -1.3760     0.1600     2.7340 h1         1 7R9       0.066700
     48 H19         -1.7060     1.4630    -0.0020 h1         1 7R9       0.106700
     49 H18         -0.1660    -0.9940     0.5800 hn         1 7R9       0.503000
     50 H231         2.2390     3.4610     1.2960 h1         1 7R9       0.063200
     51 H232         2.7830     2.6550    -0.1960 h1         1 7R9       0.063200
     52 H261        -0.6590     2.5510    -1.6120 h1         1 7R9       0.062200
     53 H262        -0.9410     3.8850    -0.4630 h1         1 7R9       0.062200
     54 H24          1.3050     5.3750     0.0720 h1         1 7R9       0.033700
     55 H251         1.4170     3.5290    -2.4340 hc         1 7R9       0.064700
     56 H252         0.3900     4.9560    -2.2380 hc         1 7R9       0.064700
     57 H291         2.5990     7.0780    -1.5760 h1         1 7R9       0.034200
     58 H292         4.0080     6.4480    -2.4600 h1         1 7R9       0.034200
     59 H293         2.3820     5.9420    -2.9290 h1         1 7R9       0.034200
     60 H281         4.3540     4.4220     0.5110 h1         1 7R9       0.034200
     61 H282         5.1040     5.5930    -0.5820 h1         1 7R9       0.034200
     62 H283         3.8590     6.1310     0.5690 h1         1 7R9       0.034200
     63 H10          0.8840     0.9530    -3.2270 ha         1 7R9       0.145000
     64 H14          1.2210    -3.8420     0.7260 h3         1 7R9       0.110700
     65 H11          3.2680     1.6110    -3.3010 ha         1 7R9       0.125000
     66 H12          4.8520     0.7870    -1.5920 ha         1 7R9       0.131000
     67 H21C         4.1520     0.4980     2.0380 h1         1 7R9       0.052700
     68 H22C         2.9700    -0.8030     2.0880 h1         1 7R9       0.052700
     69 H11C         4.7660    -0.8840     3.9000 hc         1 7R9       0.057200
     70 H12C         4.5630    -2.3740     2.9850 hc         1 7R9       0.057200
     71 H61C         6.7260    -0.2490     2.4340 hc         1 7R9       0.046700
     72 H62C         6.9980    -1.7920     3.2520 hc         1 7R9       0.046700
     73 H51C         7.5590    -1.9350     0.7410 hc         1 7R9       0.075700
     74 H52C         6.3200    -3.0540     1.2720 hc         1 7R9       0.075700
@<TRIPOS>BOND
     1     1     2 1   
     2     1     6 2   
     3     1    43 1   
     4     2     3 2   
     5     2    44 1   
     6     3     4 1   
     7     3     5 1   
     8     5     6 1   
     9     6     7 1   
    10     7     8 2   
    11     7     9 1   
    12     9    10 1   
    13     9    45 1   
    14    10    11 1   
    15    10    46 1   
    16    10    47 1   
    17    11    12 1   
    18    11    22 1   
    19    11    48 1   
    20    12    13 2   
    21    12    14 1   
    22    14    15 1   
    23    14    16 1   
    24    15    18 1   
    25    15    50 1   
    26    15    51 1   
    27    16    17 1   
    28    16    52 1   
    29    16    53 1   
    30    17    18 1   
    31    17    55 1   
    32    17    56 1   
    33    18    19 1   
    34    18    54 1   
    35    19    20 1   
    36    19    21 1   
    37    20    57 1   
    38    20    58 1   
    39    20    59 1   
    40    21    60 1   
    41    21    61 1   
    42    21    62 1   
    43    22    23 1   
    44    22    49 1   
    45    23    24 2   
    46    23    25 2   
    47    23    26 1   
    48    26    27 ar  
    49    26    32 ar  
    50    27    28 1   
    51    27    35 ar  
    52    28    29 1   
    53    29    30 1   
    54    29    31 1   
    55    29    64 1   
    56    32    33 ar  
    57    32    63 1   
    58    33    34 ar  
    59    33    65 1   
    60    34    35 ar  
    61    34    66 1   
    62    35    36 1   
    63    36    37 1   
    64    36    41 1   
    65    37    38 1   
    66    37    67 1   
    67    37    68 1   
    68    38    39 1   
    69    38    69 1   
    70    38    70 1   
    71    39    40 1   
    72    39    71 1   
    73    39    72 1   
    74    40    41 1   
    75    40    73 1   
    76    40    74 1   
    77    41    42 2   
@<TRIPOS>SUBSTRUCTURE
     1 7R9         1 TEMP              0 ****  ****    0 ROOT
