@<TRIPOS>MOLECULE
7R9
   74    77     1     0     0
SMALL
bcc


@<TRIPOS>ATOM
      1 C36         -6.4320     1.1790    -0.4380 cc         1 7R9      -0.071000
      2 C35         -7.6250     0.4210    -0.4900 cc         1 7R9      -0.152000
      3 C34         -7.5530    -0.6780     0.3080 cd         1 7R9       0.041300
      4 CL          -8.7580    -1.8610     0.5340 cl         1 7R9      -0.040400
      5 S33         -6.0530    -0.8100     1.1270 ss         1 7R9      -0.038800
      6 C32         -5.4870     0.6490     0.3950 cd         1 7R9      -0.144700
      7 C31         -4.1540     1.2420     0.6290 c          1 7R9       0.718700
      8 O42         -3.7830     2.2000    -0.0350 o          1 7R9      -0.608100
      9 N30         -3.3950     0.6900     1.5930 ns         1 7R9      -0.560900
     10 C22         -2.0540     1.1400     1.8510 c3         1 7R9       0.122000
     11 C19         -1.0640     0.6340     0.7940 c3         1 7R9       0.100500
     12 C20          0.3140     1.2300     1.0850 c          1 7R9       0.640100
     13 O41          1.0220     0.7020     1.9350 o          1 7R9      -0.614100
     14 N21          0.6660     2.3310     0.4210 n          1 7R9      -0.465800
     15 C23          1.9250     3.0050     0.7030 c5         1 7R9       0.095000
     16 C26         -0.1170     3.0290    -0.5980 c5         1 7R9       0.097000
     17 C25          0.8730     4.0290    -1.1720 c5         1 7R9      -0.093400
     18 C24          1.7780     4.3620     0.0130 c5         1 7R9       0.158500
     19 N27          3.0560     4.9290    -0.3650 n3         1 7R9      -0.706600
     20 C29          2.8910     6.1750    -1.0880 c3         1 7R9       0.146100
     21 C28          3.9120     5.1270     0.7890 c3         1 7R9       0.146100
     22 N18         -1.0220    -0.8180     0.8280 n7         1 7R9      -0.796100
     23 S17         -0.6850    -1.6060    -0.5800 sy         1 7R9       1.301200
     24 O38         -0.5670    -3.0140    -0.2550 o          1 7R9      -0.604800
     25 O39         -1.6720    -1.1760    -1.5540 o          1 7R9      -0.604800
     26 C9           0.8810    -0.9560    -1.1270 ca         1 7R9      -0.310500
     27 C8           2.0430    -1.2270    -0.4070 ca         1 7R9       0.209100
     28 O13          1.9510    -2.0060     0.7110 os         1 7R9      -0.400900
     29 C14          2.3220    -3.3250     0.6750 c3         1 7R9       0.628700
     30 F16          2.3410    -3.7900    -0.5830 f          1 7R9      -0.238300
     31 F15          3.5770    -3.4660     1.1570 f          1 7R9      -0.238300
     32 C10          0.9100    -0.1060    -2.2220 ca         1 7R9      -0.026000
     33 C11          2.1080     0.4820    -2.5960 ca         1 7R9      -0.145000
     34 C12          3.2590     0.2340    -1.8680 ca         1 7R9      -0.055000
     35 C7           3.2380    -0.6180    -0.7690 ca         1 7R9       0.030600
     36 N3           4.4010    -0.8200     0.0080 n          1 7R9      -0.408000
     37 C2           4.5320     0.0260     1.1980 c6         1 7R9       0.113000
     38 C1           5.5700    -0.5090     2.1590 c6         1 7R9      -0.090400
     39 C6           6.8570    -0.7990     1.4090 c6         1 7R9      -0.073400
     40 C5           6.5960    -1.8620     0.3530 c6         1 7R9      -0.154400
     41 C4           5.3570    -1.6520    -0.4810 c          1 7R9       0.715500
     42 O40          5.1970    -2.2410    -1.5390 o          1 7R9      -0.626500
     43 H36         -6.2790     2.0910    -0.9950 ha         1 7R9       0.174000
     44 H35         -8.4870     0.6760    -1.0880 ha         1 7R9       0.169000
     45 H30         -3.7180    -0.1090     2.1130 hn         1 7R9       0.325500
     46 H221        -2.0230     2.2300     1.8830 h1         1 7R9       0.066700
     47 H222        -1.7610     0.7790     2.8350 h1         1 7R9       0.066700
     48 H19         -1.4420     0.9350    -0.1830 h1         1 7R9       0.106700
     49 H18         -0.5050    -1.1940     1.6190 hn         1 7R9       0.447800
     50 H231         2.0900     3.0820     1.7770 h1         1 7R9       0.063200
     51 H232         2.7630     2.4540     0.2650 h1         1 7R9       0.063200
     52 H261        -0.4860     2.3480    -1.3650 h1         1 7R9       0.062200
     53 H262        -0.9800     3.5290    -0.1520 h1         1 7R9       0.062200
     54 H24          1.2300     5.0420     0.6920 h1         1 7R9       0.033700
     55 H251         1.4710     3.5620    -1.9580 hc         1 7R9       0.064700
     56 H252         0.3660     4.8940    -1.5960 hc         1 7R9       0.064700
     57 H291         2.3660     6.9480    -0.5050 h1         1 7R9       0.034200
     58 H292         3.8690     6.5710    -1.3620 h1         1 7R9       0.034200
     59 H293         2.3340     6.0170    -2.0110 h1         1 7R9       0.034200
     60 H281         4.1560     4.1760     1.2640 h1         1 7R9       0.034200
     61 H282         4.8530     5.5780     0.4720 h1         1 7R9       0.034200
     62 H283         3.4670     5.7830     1.5530 h1         1 7R9       0.034200
     63 H10          0.0080     0.1020    -2.7800 ha         1 7R9       0.163000
     64 H14          1.6420    -3.9080     1.2920 h3         1 7R9       0.110700
     65 H11          2.1380     1.1470    -3.4480 ha         1 7R9       0.143000
     66 H12          4.1910     0.7090    -2.1440 ha         1 7R9       0.149000
     67 H21C         4.8050     1.0400     0.8830 h1         1 7R9       0.052700
     68 H22C         3.5570     0.0950     1.6790 h1         1 7R9       0.052700
     69 H11C         5.7230     0.2310     2.9450 hc         1 7R9       0.057200
     70 H12C         5.2000    -1.4200     2.6380 hc         1 7R9       0.057200
     71 H61C         7.2210     0.1180     0.9380 hc         1 7R9       0.046700
     72 H62C         7.6410    -1.1390     2.0870 hc         1 7R9       0.046700
     73 H51C         7.4390    -1.9640    -0.3320 hc         1 7R9       0.075700
     74 H52C         6.4760    -2.8390     0.8350 hc         1 7R9       0.075700
@<TRIPOS>BOND
     1     1     2 1   
     2     1     6 2   
     3     1    43 1   
     4     2     3 2   
     5     2    44 1   
     6     3     4 1   
     7     3     5 1   
     8     5     6 1   
     9     6     7 1   
    10     7     8 2   
    11     7     9 1   
    12     9    10 1   
    13     9    45 1   
    14    10    11 1   
    15    10    46 1   
    16    10    47 1   
    17    11    12 1   
    18    11    22 1   
    19    11    48 1   
    20    12    13 2   
    21    12    14 1   
    22    14    15 1   
    23    14    16 1   
    24    15    18 1   
    25    15    50 1   
    26    15    51 1   
    27    16    17 1   
    28    16    52 1   
    29    16    53 1   
    30    17    18 1   
    31    17    55 1   
    32    17    56 1   
    33    18    19 1   
    34    18    54 1   
    35    19    20 1   
    36    19    21 1   
    37    20    57 1   
    38    20    58 1   
    39    20    59 1   
    40    21    60 1   
    41    21    61 1   
    42    21    62 1   
    43    22    23 1   
    44    22    49 1   
    45    23    24 2   
    46    23    25 2   
    47    23    26 1   
    48    26    27 ar  
    49    26    32 ar  
    50    27    28 1   
    51    27    35 ar  
    52    28    29 1   
    53    29    30 1   
    54    29    31 1   
    55    29    64 1   
    56    32    33 ar  
    57    32    63 1   
    58    33    34 ar  
    59    33    65 1   
    60    34    35 ar  
    61    34    66 1   
    62    35    36 1   
    63    36    37 1   
    64    36    41 1   
    65    37    38 1   
    66    37    67 1   
    67    37    68 1   
    68    38    39 1   
    69    38    69 1   
    70    38    70 1   
    71    39    40 1   
    72    39    71 1   
    73    39    72 1   
    74    40    41 1   
    75    40    73 1   
    76    40    74 1   
    77    41    42 2   
@<TRIPOS>SUBSTRUCTURE
     1 7R9         1 TEMP              0 ****  ****    0 ROOT
