@<TRIPOS>MOLECULE
7RB
   59    63     1     0     0
SMALL
No Charge or Current Charge


@<TRIPOS>ATOM
      1 C11        -10.5350    -1.3630    15.4450 c3         1 7RB       0.007600
      2 C13         -9.0750     0.1030    13.9490 cc         1 7RB      -0.192000
      3 C14         -9.0860     0.4210    12.6130 cd         1 7RB      -0.083000
      4 C15        -10.1810    -0.2290    12.0010 cd         1 7RB      -0.304600
      5 C16        -10.8400    -0.9400    12.9500 cc         1 7RB       0.176400
      6 C18        -12.3590    -1.6600    11.4330 cd         1 7RB       0.758800
      7 C20        -14.1670    -3.3070    12.0590 c6         1 7RB       0.227800
      8 C21        -15.4800    -2.6910    12.6110 c6         1 7RB      -0.094400
      9 C22        -16.3100    -1.9330    11.5290 c6         1 7RB      -0.053700
     10 C23        -17.8520    -2.0370    11.7490 c3         1 7RB      -0.026100
     11 C24        -18.4350    -3.4460    11.6460 ca         1 7RB      -0.079300
     12 C25        -18.6810    -4.2030    12.8100 ca         1 7RB      -0.110000
     13 C02        -12.0000    -1.1250    15.8270 c          1 7RB       0.608100
     14 C04        -14.1910    -2.4620    15.9860 ca         1 7RB       0.035000
     15 C05        -15.0960    -1.4290    16.3110 ca         1 7RB      -0.185000
     16 C06        -16.4530    -1.7310    16.5110 ca         1 7RB       0.358900
     17 C08        -16.0910    -3.9770    16.0950 ca         1 7RB       0.368900
     18 C09        -14.7150    -3.7660    15.8750 ca         1 7RB      -0.011000
     19 C26        -19.2210    -5.4970    12.7170 ca         1 7RB      -0.109500
     20 C27        -19.5270    -6.0420    11.4590 ca         1 7RB      -0.111000
     21 C28        -19.2970    -5.2900    10.2950 ca         1 7RB      -0.109500
     22 C29        -18.7570    -3.9960    10.3880 ca         1 7RB      -0.110000
     23 C30        -15.8480    -2.3350    10.1020 c6         1 7RB      -0.094400
     24 C31        -14.3400    -2.0100     9.9080 c6         1 7RB       0.227800
     25 C33        -10.6320    -0.2270    10.6070 c          1 7RB       0.624600
     26 N03        -12.8050    -2.2540    15.7440 ns         1 7RB      -0.138000
     27 N07        -16.9540    -2.9810    16.4080 nb         1 7RB      -0.678000
     28 N12        -10.1700    -0.7470    14.1590 na         1 7RB       0.016000
     29 N17        -11.9600    -1.6900    12.6980 nc         1 7RB      -0.745100
     30 N19        -13.5050    -2.3800    11.0960 nh         1 7RB      -0.761600
     31 N32        -11.7380    -0.9860    10.4340 ns         1 7RB      -0.457400
     32 O01        -12.3980    -0.0240    16.1930 o          1 7RB      -0.541100
     33 Cl10       -13.6740    -5.1310    15.4560 cl         1 7RB      -0.194000
     34 H1         -10.3470    -2.4410    15.3850 h1         1 7RB       0.075700
     35 H2          -9.9070    -0.9490    16.2410 h1         1 7RB       0.075700
     36 H3          -8.3990     0.3980    14.7420 h4         1 7RB       0.149000
     37 H4          -8.3670     1.0640    12.1120 ha         1 7RB       0.147000
     38 H5         -14.4130    -4.2450    11.5380 h1         1 7RB       0.056200
     39 H6         -13.5140    -3.5970    12.8940 h1         1 7RB       0.056200
     40 H7         -15.2350    -1.9890    13.4170 hc         1 7RB       0.056700
     41 H8         -16.0630    -3.4950    13.0750 hc         1 7RB       0.056700
     42 H9         -16.0840    -0.8620    11.6420 hc         1 7RB       0.051700
     43 H10        -18.0990    -1.6140    12.7310 hc         1 7RB       0.051700
     44 H11        -18.3610    -1.3870    11.0270 hc         1 7RB       0.051700
     45 H12        -18.4520    -3.7880    13.7890 ha         1 7RB       0.112000
     46 H13        -14.7840    -0.3950    16.4060 ha         1 7RB       0.160000
     47 H14        -17.1640    -0.9430    16.7600 h4         1 7RB       0.027100
     48 H15        -16.5170    -4.9760    16.0120 h4         1 7RB       0.032100
     49 H16        -19.4040    -6.0760    13.6190 ha         1 7RB       0.112000
     50 H17        -19.9460    -7.0440    11.3860 ha         1 7RB       0.113000
     51 H18        -19.5390    -5.7090     9.3200 ha         1 7RB       0.112000
     52 H19        -18.5880    -3.4200     9.4820 ha         1 7RB       0.112000
     53 H20        -16.4370    -1.8050     9.3410 hc         1 7RB       0.056700
     54 H21        -16.0180    -3.4070     9.9360 hc         1 7RB       0.056700
     55 H22        -13.9720    -2.5210     9.0070 h1         1 7RB       0.056200
     56 H23        -14.2600    -0.9280     9.7220 h1         1 7RB       0.056200
     57 H24        -12.3210    -3.0850    15.4290 hn         1 7RB       0.167000
     58 H25        -12.0950    -1.0490     9.4980 hn         1 7RB       0.323500
     59 O34        -10.0910     0.3770     9.6940 o          1 7RB      -0.546000
@<TRIPOS>BOND
     1     1    13 1   
     2     1    28 1   
     3     1    34 1   
     4     1    35 1   
     5     2     3 2   
     6     2    28 1   
     7     2    36 1   
     8     3     4 1   
     9     3    37 1   
    10     4     5 2   
    11     4    25 1   
    12     5    28 1   
    13     5    29 1   
    14     6    29 2   
    15     6    30 1   
    16     6    31 1   
    17     7     8 1   
    18     7    30 1   
    19     7    38 1   
    20     7    39 1   
    21     8     9 1   
    22     8    40 1   
    23     8    41 1   
    24     9    10 1   
    25     9    23 1   
    26     9    42 1   
    27    10    11 1   
    28    10    43 1   
    29    10    44 1   
    30    11    12 ar  
    31    11    22 ar  
    32    12    19 ar  
    33    12    45 1   
    34    13    26 1   
    35    13    32 2   
    36    14    15 ar  
    37    14    18 ar  
    38    14    26 1   
    39    15    16 ar  
    40    15    46 1   
    41    16    27 ar  
    42    16    47 1   
    43    17    18 ar  
    44    17    27 ar  
    45    17    48 1   
    46    18    33 1   
    47    19    20 ar  
    48    19    49 1   
    49    20    21 ar  
    50    20    50 1   
    51    21    22 ar  
    52    21    51 1   
    53    22    52 1   
    54    23    24 1   
    55    23    53 1   
    56    23    54 1   
    57    24    30 1   
    58    24    55 1   
    59    24    56 1   
    60    25    31 1   
    61    25    59 2   
    62    26    57 1   
    63    31    58 1   
@<TRIPOS>SUBSTRUCTURE
     1 7RB         1 TEMP              0 ****  ****    0 ROOT
