@<TRIPOS>MOLECULE
7RB
   59    63     1     0     0
SMALL
bcc


@<TRIPOS>ATOM
      1 C11        -10.6680    -1.5920    15.2100 c3         1 7RB      -0.021700
      2 C13         -9.2700     0.1240    13.9770 cc         1 7RB      -0.159300
      3 C14         -9.2390     0.6280    12.7130 cd         1 7RB      -0.101000
      4 C15        -10.2790    -0.0300    11.9890 cd         1 7RB      -0.304600
      5 C16        -10.8920    -0.9160    12.8650 cc         1 7RB       0.227100
      6 C18        -12.4180    -1.6610    11.4200 cd         1 7RB       0.758800
      7 C20        -14.0560    -3.3450    12.0290 c6         1 7RB       0.227800
      8 C21        -15.3640    -2.7970    12.5910 c6         1 7RB      -0.094400
      9 C22        -16.1480    -2.0300    11.5140 c6         1 7RB      -0.053700
     10 C23        -17.6650    -2.0360    11.7610 c3         1 7RB      -0.026100
     11 C24        -18.3210    -3.3860    11.6670 ca         1 7RB      -0.079300
     12 C25        -18.5550    -4.1540    12.8070 ca         1 7RB      -0.128000
     13 C02        -12.1240    -1.2970    15.5570 c          1 7RB       0.675100
     14 C04        -14.2140    -2.4940    16.0830 ca         1 7RB       0.127600
     15 C05        -15.0260    -1.4090    16.4200 ca         1 7RB      -0.268300
     16 C06        -16.3810    -1.6150    16.6030 ca         1 7RB       0.424200
     17 C08        -16.2210    -3.8330    16.1890 ca         1 7RB       0.434200
     18 C09        -14.8570    -3.7340    15.9820 ca         1 7RB      -0.167900
     19 C26        -19.1440    -5.4080    12.7180 ca         1 7RB      -0.127500
     20 C27        -19.5170    -5.9180    11.4820 ca         1 7RB      -0.129000
     21 C28        -19.3000    -5.1590    10.3380 ca         1 7RB      -0.127500
     22 C29        -18.7120    -3.9060    10.4330 ca         1 7RB      -0.128000
     23 C30        -15.7380    -2.5290    10.1320 c6         1 7RB      -0.094400
     24 C31        -14.2720    -2.1780     9.8730 c6         1 7RB       0.227800
     25 C33        -10.7810     0.0280    10.6590 c          1 7RB       0.767100
     26 N03        -12.8560    -2.4130    15.8410 ns         1 7RB      -0.464100
     27 N07        -16.9840    -2.7930    16.4890 nb         1 7RB      -0.678000
     28 N12        -10.2750    -0.8220    14.0640 na         1 7RB      -0.056100
     29 N17        -11.9380    -1.7210    12.6380 nc         1 7RB      -0.745100
     30 N19        -13.4750    -2.4160    11.0730 nh         1 7RB      -0.761600
     31 N32        -11.8630    -0.8470    10.4690 ns         1 7RB      -0.524400
     32 O01        -12.5520    -0.1670    15.5780 o          1 7RB      -0.541100
     33 CL10       -13.9750    -5.1580    15.5570 cl         1 7RB      -0.102400
     34 H1         -10.4980    -2.6550    15.0310 h1         1 7RB       0.075700
     35 H2         -10.0470    -1.3010    16.0590 h1         1 7RB       0.075700
     36 H3          -8.6590     0.3490    14.8360 h4         1 7RB       0.167000
     37 H4          -8.5590     1.3800    12.3470 ha         1 7RB       0.165000
     38 H5         -14.2320    -4.2890    11.5080 h1         1 7RB       0.056200
     39 H6         -13.3390    -3.5500    12.8180 h1         1 7RB       0.056200
     40 H7         -15.1670    -2.1360    13.4380 hc         1 7RB       0.056700
     41 H8         -15.9440    -3.6390    12.9750 hc         1 7RB       0.056700
     42 H9         -15.8470    -0.9780    11.5700 hc         1 7RB       0.051700
     43 H10        -17.8490    -1.6150    12.7540 hc         1 7RB       0.051700
     44 H11        -18.1300    -1.3550    11.0430 hc         1 7RB       0.051700
     45 H12        -18.2810    -3.7590    13.7800 ha         1 7RB       0.130000
     46 H13        -14.6210    -0.4180    16.5340 ha         1 7RB       0.178000
     47 H14        -17.0120    -0.7710    16.8560 h4         1 7RB       0.027100
     48 H15        -16.7060    -4.7980    16.0950 h4         1 7RB       0.032100
     49 H16        -19.3170    -5.9850    13.6180 ha         1 7RB       0.130000
     50 H17        -19.9790    -6.8940    11.4110 ha         1 7RB       0.131000
     51 H18        -19.5960    -5.5420     9.3690 ha         1 7RB       0.130000
     52 H19        -18.5590    -3.3190     9.5350 ha         1 7RB       0.130000
     53 H20        -16.3360    -2.0570     9.3490 hc         1 7RB       0.056700
     54 H21        -15.9030    -3.6050    10.0400 hc         1 7RB       0.056700
     55 H22        -13.8810    -2.7450     9.0220 h1         1 7RB       0.056200
     56 H23        -14.2290    -1.1180     9.6140 h1         1 7RB       0.056200
     57 H24        -12.3840    -3.2960    15.7030 hn         1 7RB       0.333500
     58 H25        -12.2110    -0.8840     9.5210 hn         1 7RB       0.323500
     59 O34        -10.3860     0.7140     9.7280 o          1 7RB      -0.621500
@<TRIPOS>BOND
     1     1    13 1   
     2     1    28 1   
     3     1    34 1   
     4     1    35 1   
     5     2     3 2   
     6     2    28 1   
     7     2    36 1   
     8     3     4 1   
     9     3    37 1   
    10     4     5 2   
    11     4    25 1   
    12     5    28 1   
    13     5    29 1   
    14     6    29 2   
    15     6    30 1   
    16     6    31 1   
    17     7     8 1   
    18     7    30 1   
    19     7    38 1   
    20     7    39 1   
    21     8     9 1   
    22     8    40 1   
    23     8    41 1   
    24     9    10 1   
    25     9    23 1   
    26     9    42 1   
    27    10    11 1   
    28    10    43 1   
    29    10    44 1   
    30    11    12 ar  
    31    11    22 ar  
    32    12    19 ar  
    33    12    45 1   
    34    13    26 1   
    35    13    32 2   
    36    14    15 ar  
    37    14    18 ar  
    38    14    26 1   
    39    15    16 ar  
    40    15    46 1   
    41    16    27 ar  
    42    16    47 1   
    43    17    18 ar  
    44    17    27 ar  
    45    17    48 1   
    46    18    33 1   
    47    19    20 ar  
    48    19    49 1   
    49    20    21 ar  
    50    20    50 1   
    51    21    22 ar  
    52    21    51 1   
    53    22    52 1   
    54    23    24 1   
    55    23    53 1   
    56    23    54 1   
    57    24    30 1   
    58    24    55 1   
    59    24    56 1   
    60    25    31 1   
    61    25    59 2   
    62    26    57 1   
    63    31    58 1   
@<TRIPOS>SUBSTRUCTURE
     1 7RB         1 TEMP              0 ****  ****    0 ROOT
