@<TRIPOS>MOLECULE
7RD
   39    39     1     0     0
SMALL
abcg2


@<TRIPOS>ATOM
      1 N2         -11.9150   -24.9130    38.4680 n1         1 7RD      -0.088000
      2 N1         -11.2430   -25.5500    39.1190 n1         1 7RD       0.224000
      3 N          -10.4790   -26.2830    39.7240 n2         1 7RD      -0.437200
      4 C12        -10.4800   -26.1520    41.2080 c3         1 7RD       0.160800
      5 C11         -9.3340   -26.9750    41.7680 c3         1 7RD      -0.063400
      6 C10         -9.2620   -26.9380    43.2950 c3         1 7RD      -0.071400
      7 C9          -8.9250   -25.5620    43.8990 c3         1 7RD       0.000800
      8 C8          -7.6150   -25.0060    43.4240 ce         1 7RD      -0.266400
      9 C7          -7.5480   -23.9790    42.4010 c          1 7RD       0.640900
     10 O           -8.4790   -23.4360    41.8340 o          1 7RD      -0.495100
     11 S           -5.8420   -23.5540    42.0330 ss         1 7RD      -0.361600
     12 C13         -6.4000   -25.3890    43.8620 c2         1 7RD       0.140900
     13 O1          -6.2630   -26.3260    44.8090 oh         1 7RD      -0.512100
     14 C5          -5.1580   -24.7410    43.2820 c5         1 7RD       0.136400
     15 C6          -4.4230   -23.9660    44.3950 c3         1 7RD      -0.073100
     16 C4          -4.2930   -25.8010    42.6300 c2         1 7RD      -0.238200
     17 C2          -3.1770   -25.6320    41.9020 ce         1 7RD      -0.026200
     18 C3          -2.5690   -24.3040    41.5530 c3         1 7RD      -0.063900
     19 C1          -2.5120   -26.8360    41.3980 ce         1 7RD      -0.198000
     20 C           -1.3970   -26.8660    40.6630 c2         1 7RD      -0.287000
     21 H121       -10.3730   -25.0990    41.4690 h1         1 7RD       0.046200
     22 H122       -11.4380   -26.5150    41.5930 h1         1 7RD       0.046200
     23 H111        -9.4550   -28.0110    41.4420 hc         1 7RD       0.054200
     24 H112        -8.3940   -26.6180    41.3390 hc         1 7RD       0.054200
     25 H101       -10.2160   -27.2740    43.7140 hc         1 7RD       0.044200
     26 H102        -8.5070   -27.6560    43.6220 hc         1 7RD       0.044200
     27 H91C        -9.7110   -24.8430    43.6630 hc         1 7RD       0.055700
     28 H92C        -8.9000   -25.6590    44.9870 hc         1 7RD       0.055700
     29 H1          -5.3350   -26.4860    45.0340 ho         1 7RD       0.479000
     30 H61C        -4.0500   -24.6570    45.1520 hc         1 7RD       0.053367
     31 H62C        -3.5700   -23.4280    43.9910 hc         1 7RD       0.053367
     32 H63C        -5.1010   -23.2550    44.8680 hc         1 7RD       0.053367
     33 H4          -4.6330   -26.8210    42.7790 ha         1 7RD       0.180000
     34 H31C        -2.4660   -24.2090    40.4700 hc         1 7RD       0.051033
     35 H32C        -3.1540   -23.4610    41.9070 hc         1 7RD       0.051033
     36 H33C        -1.5660   -24.2200    41.9790 hc         1 7RD       0.051033
     37 HA          -2.9890   -27.7750    41.6630 ha         1 7RD       0.171000
     38 HC1         -0.9750   -27.8080    40.3350 ha         1 7RD       0.167500
     39 HC2         -0.8730   -25.9660    40.3660 ha         1 7RD       0.167500
@<TRIPOS>BOND
     1     1     2 3   
     2     2     3 1   
     3     3     4 1   
     4     4     5 1   
     5     4    21 1   
     6     4    22 1   
     7     5     6 1   
     8     5    23 1   
     9     5    24 1   
    10     6     7 1   
    11     6    25 1   
    12     6    26 1   
    13     7     8 1   
    14     7    27 1   
    15     7    28 1   
    16     8     9 1   
    17     8    12 2   
    18     9    10 2   
    19     9    11 1   
    20    11    14 1   
    21    12    13 1   
    22    12    14 1   
    23    13    29 1   
    24    14    15 1   
    25    14    16 1   
    26    15    30 1   
    27    15    31 1   
    28    15    32 1   
    29    16    17 2   
    30    16    33 1   
    31    17    18 1   
    32    17    19 1   
    33    18    34 1   
    34    18    35 1   
    35    18    36 1   
    36    19    20 2   
    37    19    37 1   
    38    20    38 1   
    39    20    39 1   
@<TRIPOS>SUBSTRUCTURE
     1 7RD         1 TEMP              0 ****  ****    0 ROOT
