@<TRIPOS>MOLECULE
7RD
   39    39     1     0     0
SMALL
No Charge or Current Charge


@<TRIPOS>ATOM
      1 N2         -11.8270   -25.0980    38.3460 n1         1 7RD      -0.088000
      2 N1         -11.2450   -25.7530    39.0720 n1         1 7RD       0.224000
      3 N          -10.5040   -26.4800    39.7520 n2         1 7RD      -0.437200
      4 C12        -10.5100   -26.2340    41.1970 c3         1 7RD       0.160800
      5 C11         -9.3690   -27.0260    41.8720 c3         1 7RD      -0.063400
      6 C10         -9.3090   -26.8650    43.4120 c3         1 7RD      -0.071400
      7 C9          -8.9510   -25.4430    43.9120 c3         1 7RD       0.000800
      8 C8          -7.5880   -24.9490    43.4270 ce         1 7RD      -0.266400
      9 C7          -7.5320   -23.8980    42.3870 c          1 7RD       0.640900
     10 O           -8.4910   -23.3590    41.8530 o          1 7RD      -0.495100
     11 S           -5.8160   -23.5150    42.0120 ss         1 7RD      -0.361600
     12 C13         -6.4120   -25.4000    43.9010 c2         1 7RD       0.140900
     13 O1          -6.3070   -26.3460    44.8550 oh         1 7RD      -0.512100
     14 C5          -5.1710   -24.7510    43.2530 c5         1 7RD       0.136400
     15 C6          -4.3470   -24.0240    44.3500 c3         1 7RD      -0.073100
     16 C4          -4.4110   -25.8330    42.4570 c2         1 7RD      -0.238200
     17 C2          -3.2180   -25.6170    41.8300 ce         1 7RD      -0.026200
     18 C3          -2.4640   -24.2890    41.7320 c3         1 7RD      -0.063900
     19 C1          -2.6110   -26.7600    41.1130 ce         1 7RD      -0.198000
     20 C           -1.3460   -26.8310    40.6370 c2         1 7RD      -0.287000
     21 H121       -10.3840   -25.1640    41.4050 h1         1 7RD       0.046200
     22 H122       -11.4680   -26.5460    41.6340 h1         1 7RD       0.046200
     23 H111        -9.4990   -28.0900    41.6420 hc         1 7RD       0.054200
     24 H112        -8.4080   -26.7290    41.4340 hc         1 7RD       0.054200
     25 H101       -10.2760   -27.1590    43.8390 hc         1 7RD       0.044200
     26 H102        -8.5720   -27.5750    43.8070 hc         1 7RD       0.044200
     27 H91C        -9.7530   -24.7500    43.6290 hc         1 7RD       0.055700
     28 H92C        -8.9650   -25.4570    45.0090 hc         1 7RD       0.055700
     29 H1          -5.3530   -26.5200    45.0020 ho         1 7RD       0.479000
     30 H61C        -3.8280   -24.7390    44.9970 hc         1 7RD       0.053367
     31 H62C        -3.5980   -23.3400    43.9440 hc         1 7RD       0.053367
     32 H63C        -5.0040   -23.4180    44.9860 hc         1 7RD       0.053367
     33 H4          -4.8470   -26.8310    42.4110 ha         1 7RD       0.180000
     34 H31C        -1.9300   -24.1940    40.7800 hc         1 7RD       0.051033
     35 H32C        -3.1160   -23.4130    41.7700 hc         1 7RD       0.051033
     36 H33C        -1.7250   -24.1950    42.5360 hc         1 7RD       0.051033
     37 HA          -3.2590   -27.6290    40.9770 ha         1 7RD       0.171000
     38 HC1         -0.9870   -27.7250    40.1240 ha         1 7RD       0.167500
     39 HC2         -0.6190   -26.0260    40.7480 ha         1 7RD       0.167500
@<TRIPOS>BOND
     1     1     2 3   
     2     2     3 1   
     3     3     4 1   
     4     4     5 1   
     5     4    21 1   
     6     4    22 1   
     7     5     6 1   
     8     5    23 1   
     9     5    24 1   
    10     6     7 1   
    11     6    25 1   
    12     6    26 1   
    13     7     8 1   
    14     7    27 1   
    15     7    28 1   
    16     8     9 1   
    17     8    12 2   
    18     9    10 2   
    19     9    11 1   
    20    11    14 1   
    21    12    13 1   
    22    12    14 1   
    23    13    29 1   
    24    14    15 1   
    25    14    16 1   
    26    15    30 1   
    27    15    31 1   
    28    15    32 1   
    29    16    17 2   
    30    16    33 1   
    31    17    18 1   
    32    17    19 1   
    33    18    34 1   
    34    18    35 1   
    35    18    36 1   
    36    19    20 2   
    37    19    37 1   
    38    20    38 1   
    39    20    39 1   
@<TRIPOS>SUBSTRUCTURE
     1 7RD         1 TEMP              0 ****  ****    0 ROOT
