@<TRIPOS>MOLECULE
7RE
   15    15     1     0     0
SMALL
abcg2


@<TRIPOS>ATOM
      1 C01         11.1670    22.4340    -6.0980 c3         1 7RE      -0.150400
      2 C02         11.0050    23.8860    -5.8080 ce         1 7RE       0.547600
      3 C04         11.9100    26.0170    -5.6750 c          1 7RE       0.699500
      4 C06         10.5750    26.5980    -5.2680 c6         1 7RE      -0.194200
      5 C07          9.4720    25.6190    -5.1380 c2         1 7RE      -0.145200
      6 C08          9.6800    24.3280    -5.3950 ce         1 7RE      -0.353600
      7 N03         12.0330    24.6580    -5.9370 nf         1 7RE      -0.658100
      8 O05         12.8840    26.7300    -5.7800 o          1 7RE      -0.503100
      9 H1          12.1860    22.1960    -6.3900 hc         1 7RE       0.062033
     10 H2          10.8950    21.8450    -5.2190 hc         1 7RE       0.062033
     11 H3          10.4830    22.1340    -6.8940 hc         1 7RE       0.062033
     12 H4          10.7010    27.1430    -4.3250 hc         1 7RE       0.094700
     13 H5          10.2970    27.3720    -5.9930 hc         1 7RE       0.094700
     14 H6           8.4990    25.9830    -4.8310 ha         1 7RE       0.188000
     15 H7           8.8930    23.5920    -5.3090 ha         1 7RE       0.196000
@<TRIPOS>BOND
     1     1     2 1   
     2     1     9 1   
     3     1    10 1   
     4     1    11 1   
     5     2     6 1   
     6     2     7 2   
     7     3     4 1   
     8     3     7 1   
     9     3     8 2   
    10     4     5 1   
    11     4    12 1   
    12     4    13 1   
    13     5     6 2   
    14     5    14 1   
    15     6    15 1   
@<TRIPOS>SUBSTRUCTURE
     1 7RE         1 TEMP              0 ****  ****    0 ROOT
