@<TRIPOS>MOLECULE
7RE
   15    15     1     0     0
SMALL
No Charge or Current Charge


@<TRIPOS>ATOM
      1 C01         11.2000    22.4780    -6.1450 c3         1 7RE      -0.150400
      2 C02         10.8150    23.9380    -6.1070 ce         1 7RE       0.547600
      3 C04         11.8550    25.9690    -5.7580 c          1 7RE       0.699500
      4 C06         10.5350    26.6790    -5.4230 c6         1 7RE      -0.194200
      5 C07          9.5380    25.6550    -4.8900 c2         1 7RE      -0.145200
      6 C08          9.6830    24.3630    -5.2670 ce         1 7RE      -0.353600
      7 N03         11.6920    24.8050    -6.5280 nf         1 7RE      -0.658100
      8 O05         12.9160    26.2230    -5.2090 o          1 7RE      -0.503100
      9 H1          12.2240    22.3280    -5.7830 hc         1 7RE       0.062033
     10 H2          10.5370    21.8670    -5.5220 hc         1 7RE       0.062033
     11 H3          11.1450    22.0900    -7.1680 hc         1 7RE       0.062033
     12 H4          10.7080    27.5060    -4.7230 hc         1 7RE       0.094700
     13 H5          10.1130    27.0440    -6.3680 hc         1 7RE       0.094700
     14 H6           8.7220    26.0000    -4.2460 ha         1 7RE       0.188000
     15 H7           8.9970    23.5880    -4.9240 ha         1 7RE       0.196000
@<TRIPOS>BOND
     1     1     2 1   
     2     1     9 1   
     3     1    10 1   
     4     1    11 1   
     5     2     6 1   
     6     2     7 2   
     7     3     4 1   
     8     3     7 1   
     9     3     8 2   
    10     4     5 1   
    11     4    12 1   
    12     4    13 1   
    13     5     6 2   
    14     5    14 1   
    15     6    15 1   
@<TRIPOS>SUBSTRUCTURE
     1 7RE         1 TEMP              0 ****  ****    0 ROOT
