@<TRIPOS>MOLECULE
7RF
   43    45     1     0     0
SMALL
abcg2


@<TRIPOS>ATOM
      1 C4         -22.8450   -12.2070    -6.7540 ca         1 7RF      -0.192000
      2 C3         -23.6930   -13.2460    -6.4280 ca         1 7RF      -0.013000
      3 C2         -24.7660   -13.0620    -5.5580 ca         1 7RF      -0.186600
      4 O2         -26.5900   -13.8920    -4.3590 os         1 7RF      -0.363200
      5 C1         -25.6260   -14.2140    -5.2420 c          1 7RF       0.618700
      6 O1         -25.5080   -15.3190    -5.7010 o          1 7RF      -0.463000
      7 C14        -28.7460   -14.8530    -4.4280 ca         1 7RF      -0.102000
      8 C13        -29.6830   -15.7990    -3.9560 ca         1 7RF      -0.016000
      9 C18        -31.0200   -15.8220    -4.4160 ca         1 7RF      -0.109000
     10 C17        -31.9060   -16.7450    -3.9420 ca         1 7RF      -0.064000
     11 C16        -31.5160   -17.6960    -2.9680 ca         1 7RF      -0.135900
     12 C19        -32.5190   -18.6840    -2.4830 ce         1 7RF       0.656800
     13 N5         -33.4980   -18.9780    -3.2500 n2         1 7RF      -0.824100
     14 N4         -32.2600   -19.2340    -1.2600 nv         1 7RF      -1.074200
     15 C15        -30.2200   -17.6950    -2.5150 ca         1 7RF      -0.077000
     16 C12        -29.2790   -16.7570    -2.9940 ca         1 7RF      -0.048000
     17 C11        -27.9420   -16.7420    -2.5320 ca         1 7RF      -0.082000
     18 C10        -27.0480   -15.8190    -2.9960 ca         1 7RF      -0.112000
     19 C9         -27.4690   -14.8710    -3.9490 ca         1 7RF       0.115100
     20 C7         -24.9840   -11.7880    -5.0300 ca         1 7RF      -0.013000
     21 C6         -24.1390   -10.7450    -5.3450 ca         1 7RF      -0.192000
     22 C5         -23.0470   -10.9350    -6.2020 ca         1 7RF       0.350000
     23 N1         -22.2570    -9.8480    -6.5100 nu         1 7RF      -0.981200
     24 C8         -20.9110    -9.8580    -6.8710 c2         1 7RF       0.831100
     25 N3         -20.0810   -10.8180    -6.7270 n2         1 7RF      -0.882100
     26 N2         -20.5210    -8.6940    -7.4650 nv         1 7RF      -1.053200
     27 H1         -22.0480   -12.3830    -7.4610 ha         1 7RF       0.125500
     28 H2         -23.5180   -14.2190    -6.8700 ha         1 7RF       0.135000
     29 H3         -29.0480   -14.1130    -5.1590 ha         1 7RF       0.129000
     30 H4         -31.3360   -15.0920    -5.1520 ha         1 7RF       0.119000
     31 H5         -32.9260   -16.7520    -4.3010 ha         1 7RF       0.138000
     32 H6         -34.1270   -19.6410    -2.8060 hn         1 7RF       0.371400
     33 H7         -31.7570   -18.6810    -0.5850 hn         1 7RF       0.460500
     34 H8         -32.9840   -19.8030    -0.8500 hn         1 7RF       0.460500
     35 H9         -29.8830   -18.4280    -1.7910 ha         1 7RF       0.119000
     36 H10        -27.6300   -17.4730    -1.7960 ha         1 7RF       0.117000
     37 H11        -26.0310   -15.8010    -2.6270 ha         1 7RF       0.128000
     38 H12        -25.8100   -11.5970    -4.3590 ha         1 7RF       0.135000
     39 H13        -24.3180    -9.7660    -4.9170 ha         1 7RF       0.125500
     40 H14        -22.6420    -8.9500    -6.2560 hn         1 7RF       0.485000
     41 H15        -20.4800   -11.5980    -6.2230 hn         1 7RF       0.402400
     42 H16        -21.1100    -7.8800    -7.4160 hn         1 7RF       0.480000
     43 H17        -19.5350    -8.5000    -7.4500 hn         1 7RF       0.480000
@<TRIPOS>BOND
     1     1     2 ar  
     2     1    22 ar  
     3     1    27 1   
     4     2     3 ar  
     5     2    28 1   
     6     3     5 1   
     7     3    20 ar  
     8     4     5 1   
     9     4    19 1   
    10     5     6 2   
    11     7     8 ar  
    12     7    19 ar  
    13     7    29 1   
    14     8     9 ar  
    15     8    16 ar  
    16     9    10 ar  
    17     9    30 1   
    18    10    11 ar  
    19    10    31 1   
    20    11    12 1   
    21    11    15 ar  
    22    12    13 2   
    23    12    14 1   
    24    13    32 1   
    25    14    33 1   
    26    14    34 1   
    27    15    16 ar  
    28    15    35 1   
    29    16    17 ar  
    30    17    18 ar  
    31    17    36 1   
    32    18    19 ar  
    33    18    37 1   
    34    20    21 ar  
    35    20    38 1   
    36    21    22 ar  
    37    21    39 1   
    38    22    23 1   
    39    23    24 1   
    40    23    40 1   
    41    24    25 2   
    42    24    26 1   
    43    25    41 1   
    44    26    42 1   
    45    26    43 1   
@<TRIPOS>SUBSTRUCTURE
     1 7RF         1 TEMP              0 ****  ****    0 ROOT
