@<TRIPOS>MOLECULE
7RF
   43    45     1     0     0
SMALL
No Charge or Current Charge


@<TRIPOS>ATOM
      1 C4         -22.4970   -12.3390    -6.7290 ca         1 7RF      -0.192000
      2 C3         -23.2880   -13.4390    -6.3530 ca         1 7RF      -0.013000
      3 C2         -24.5400   -13.2400    -5.7310 ca         1 7RF      -0.186600
      4 O2         -26.5720   -14.0980    -4.7490 os         1 7RF      -0.363200
      5 C1         -25.3770   -14.4330    -5.3320 c          1 7RF       0.618700
      6 O1         -25.0210   -15.5870    -5.5320 o          1 7RF      -0.463000
      7 C14        -28.8200   -14.8880    -4.5310 ca         1 7RF      -0.102000
      8 C13        -29.7530   -15.7860    -3.9810 ca         1 7RF      -0.016000
      9 C18        -31.1150   -15.6870    -4.3110 ca         1 7RF      -0.109000
     10 C17        -32.0440   -16.5870    -3.7610 ca         1 7RF      -0.064000
     11 C16        -31.6330   -17.5930    -2.8560 ca         1 7RF      -0.135900
     12 C19        -32.6340   -18.5640    -2.3020 ce         1 7RF       0.656800
     13 N5         -33.7860   -18.7420    -2.8050 n2         1 7RF      -0.824100
     14 N4         -32.3350   -19.2050    -1.1500 nv         1 7RF      -1.074200
     15 C15        -30.2540   -17.6960    -2.5450 ca         1 7RF      -0.077000
     16 C12        -29.3210   -16.7970    -3.0970 ca         1 7RF      -0.048000
     17 C11        -27.9560   -16.9030    -2.7680 ca         1 7RF      -0.082000
     18 C10        -27.0260   -16.0040    -3.3200 ca         1 7RF      -0.112000
     19 C9         -27.4570   -15.0040    -4.2120 ca         1 7RF       0.115100
     20 C7         -24.9830   -11.9170    -5.4980 ca         1 7RF      -0.013000
     21 C6         -24.1860   -10.8240    -5.8790 ca         1 7RF      -0.192000
     22 C5         -22.9420   -11.0310    -6.4870 ca         1 7RF       0.350000
     23 N1         -22.1720    -9.9400    -6.8610 nu         1 7RF      -0.981200
     24 C8         -20.9240    -9.6480    -6.6240 c2         1 7RF       0.831100
     25 N3         -20.2770   -10.2390    -5.7520 n2         1 7RF      -0.882100
     26 N2         -20.9030    -8.3660    -6.8150 nv         1 7RF      -1.053200
     27 H1         -21.5430   -12.5080    -7.2200 ha         1 7RF       0.125500
     28 H2         -22.9240   -14.4460    -6.5510 ha         1 7RF       0.135000
     29 H3         -29.1460   -14.1050    -5.2100 ha         1 7RF       0.129000
     30 H4         -31.4570   -14.9160    -4.9970 ha         1 7RF       0.119000
     31 H5         -33.0930   -16.4920    -4.0350 ha         1 7RF       0.138000
     32 H6         -34.1910   -19.5820    -2.3800 hn         1 7RF       0.371400
     33 H7         -31.5590   -18.8100    -0.6320 hn         1 7RF       0.460500
     34 H8         -33.1220   -19.4990    -0.5830 hn         1 7RF       0.460500
     35 H9         -29.8980   -18.4820    -1.8830 ha         1 7RF       0.119000
     36 H10        -27.6140   -17.6750    -2.0830 ha         1 7RF       0.117000
     37 H11        -25.9760   -16.0830    -3.0490 ha         1 7RF       0.128000
     38 H12        -25.9440   -11.7250    -5.0230 ha         1 7RF       0.135000
     39 H13        -24.5380    -9.8140    -5.6940 ha         1 7RF       0.125500
     40 H14        -22.6750    -9.0650    -6.8750 hn         1 7RF       0.485000
     41 H15        -20.7890   -11.1120    -5.5980 hn         1 7RF       0.402400
     42 H16        -20.1230    -7.9790    -6.3020 hn         1 7RF       0.480000
     43 H17        -20.8490    -8.1520    -7.8010 hn         1 7RF       0.480000
@<TRIPOS>BOND
     1     1     2 ar  
     2     1    22 ar  
     3     1    27 1   
     4     2     3 ar  
     5     2    28 1   
     6     3     5 1   
     7     3    20 ar  
     8     4     5 1   
     9     4    19 1   
    10     5     6 2   
    11     7     8 ar  
    12     7    19 ar  
    13     7    29 1   
    14     8     9 ar  
    15     8    16 ar  
    16     9    10 ar  
    17     9    30 1   
    18    10    11 ar  
    19    10    31 1   
    20    11    12 1   
    21    11    15 ar  
    22    12    13 2   
    23    12    14 1   
    24    13    32 1   
    25    14    33 1   
    26    14    34 1   
    27    15    16 ar  
    28    15    35 1   
    29    16    17 ar  
    30    17    18 ar  
    31    17    36 1   
    32    18    19 ar  
    33    18    37 1   
    34    20    21 ar  
    35    20    38 1   
    36    21    22 ar  
    37    21    39 1   
    38    22    23 1   
    39    23    24 1   
    40    23    40 1   
    41    24    25 2   
    42    24    26 1   
    43    25    41 1   
    44    26    42 1   
    45    26    43 1   
@<TRIPOS>SUBSTRUCTURE
     1 7RF         1 TEMP              0 ****  ****    0 ROOT
