@<TRIPOS>MOLECULE
7RG
   54    58     1     0     0
SMALL
abcg2


@<TRIPOS>ATOM
      1 N1           3.3490    -0.0870     0.4650 na         1 7RG       0.138800
      2 N2           4.4850     0.4210     0.9710 nc         1 7RG      -0.513800
      3 C3           4.3240     1.7210     1.0390 cd         1 7RG       0.317900
      4 C4           3.0490     2.0830     0.5630 cd         1 7RG      -0.332600
      5 C5           2.3150     3.2950     0.3760 c          1 7RG       0.620600
      6 O6           2.6620     4.4340     0.6270 o          1 7RG      -0.533000
      7 N7           1.0600     3.0270    -0.1750 ns         1 7RG      -0.436400
      8 C8           0.5600     1.7980    -0.4910 cd         1 7RG       0.535900
      9 N9           1.2230     0.7010    -0.3210 nc         1 7RG      -0.626100
     10 C10          2.4570     0.8790     0.2010 cc         1 7RG       0.140400
     11 C11         -0.8420     1.7900    -1.0160 c5         1 7RG      -0.119000
     12 C12         -1.8930     1.9240     0.1170 c5         1 7RG       0.172800
     13 N13         -2.7570     0.7650    -0.0400 n3         1 7RG      -0.705600
     14 C14         -2.7220     0.4090    -1.4440 c5         1 7RG       0.164800
     15 C15         -1.2410     0.5180    -1.7760 c5         1 7RG      -0.057700
     16 C16         -4.0690     0.9650     0.5110 c3         1 7RG       0.135500
     17 C17         -4.9000    -0.2910     0.5530 ca         1 7RG       0.124300
     18 N18         -4.2900    -1.4430     0.8000 nb         1 7RG      -0.164000
     19 C19         -5.0520    -2.5270     0.8620 ca         1 7RG       0.107900
     20 C20         -6.4250    -2.4780     0.6910 ca         1 7RG      -0.220000
     21 C21         -6.9610    -1.2260     0.4490 ca         1 7RG       0.107900
     22 N22         -6.2070    -0.1370     0.3730 nb         1 7RG      -0.164000
     23 C23          3.2090    -1.5110     0.2290 c6         1 7RG       0.104300
     24 C24          3.4150    -2.3210     1.5040 c6         1 7RG      -0.125900
     25 C25          3.3090    -3.8050     1.1800 c6         1 7RG       0.155100
     26 O26          4.2290    -4.1950     0.1850 os         1 7RG      -0.445000
     27 C27          4.0180    -3.5020    -1.0260 c6         1 7RG       0.155100
     28 C28          4.1680    -1.9970    -0.8550 c6         1 7RG      -0.125900
     29 C29         -0.9200     0.5690    -3.2580 c3         1 7RG      -0.085100
     30 H3           5.1100     2.3540     1.4200 h4         1 7RG       0.052100
     31 HN7          0.4750     3.8330    -0.3570 hn         1 7RG       0.326500
     32 H11         -0.9510     2.6470    -1.6890 hc         1 7RG       0.062700
     33 H12         -1.4500     1.9410     1.1170 h1         1 7RG       0.045200
     34 H12A        -2.4370     2.8720    -0.0060 h1         1 7RG       0.045200
     35 H14         -3.1090    -0.5980    -1.6110 h1         1 7RG       0.043700
     36 H14A        -3.3120     1.1030    -2.0700 h1         1 7RG       0.043700
     37 H15         -0.7320    -0.3370    -1.3270 hc         1 7RG       0.095700
     38 H16         -3.9630     1.3220     1.5420 h1         1 7RG       0.056200
     39 H16A        -4.6410     1.7390    -0.0240 h1         1 7RG       0.056200
     40 H19         -4.5490    -3.4670     1.0610 h4         1 7RG       0.025600
     41 H20         -7.0400    -3.3640     0.7430 ha         1 7RG       0.136000
     42 H21         -8.0280    -1.0940     0.3070 h4         1 7RG       0.025600
     43 H23          2.1810    -1.6470    -0.1170 h1         1 7RG       0.082700
     44 H24          4.3990    -2.1030     1.9260 hc         1 7RG       0.068200
     45 H24A         2.6640    -2.0590     2.2520 hc         1 7RG       0.068200
     46 H25          3.5220    -4.4020     2.0670 h1         1 7RG       0.047450
     47 H25A         2.2820    -4.0380     0.8630 h1         1 7RG       0.047450
     48 H27          4.7490    -3.8770    -1.7440 h1         1 7RG       0.047450
     49 H27A         3.0180    -3.7260    -1.4250 h1         1 7RG       0.047450
     50 H28          3.9540    -1.5030    -1.8050 hc         1 7RG       0.068200
     51 H28A         5.1950    -1.7520    -0.5730 hc         1 7RG       0.068200
     52 H29         -1.4090     1.4180    -3.7400 hc         1 7RG       0.038367
     53 H29A         0.1540     0.6640    -3.4230 hc         1 7RG       0.038367
     54 H29B        -1.2500    -0.3400    -3.7620 hc         1 7RG       0.038367
@<TRIPOS>BOND
     1     1     2 1   
     2     1    10 1   
     3     1    23 1   
     4     2     3 2   
     5     3     4 1   
     6     3    30 1   
     7     4     5 1   
     8     4    10 2   
     9     5     6 2   
    10     5     7 1   
    11     7     8 1   
    12     7    31 1   
    13     8     9 2   
    14     8    11 1   
    15     9    10 1   
    16    11    12 1   
    17    11    15 1   
    18    11    32 1   
    19    12    13 1   
    20    12    33 1   
    21    12    34 1   
    22    13    14 1   
    23    13    16 1   
    24    14    15 1   
    25    14    35 1   
    26    14    36 1   
    27    15    29 1   
    28    15    37 1   
    29    16    17 1   
    30    16    38 1   
    31    16    39 1   
    32    17    18 ar  
    33    17    22 ar  
    34    18    19 ar  
    35    19    20 ar  
    36    19    40 1   
    37    20    21 ar  
    38    20    41 1   
    39    21    22 ar  
    40    21    42 1   
    41    23    24 1   
    42    23    28 1   
    43    23    43 1   
    44    24    25 1   
    45    24    44 1   
    46    24    45 1   
    47    25    26 1   
    48    25    46 1   
    49    25    47 1   
    50    26    27 1   
    51    27    28 1   
    52    27    48 1   
    53    27    49 1   
    54    28    50 1   
    55    28    51 1   
    56    29    52 1   
    57    29    53 1   
    58    29    54 1   
@<TRIPOS>SUBSTRUCTURE
     1 7RG         1 TEMP              0 ****  ****    0 ROOT
