@<TRIPOS>MOLECULE
7RG
   54    58     1     0     0
SMALL
No Charge or Current Charge


@<TRIPOS>ATOM
      1 N1           3.4480    -0.1340     0.0980 na         1 7RG       0.138800
      2 N2           4.7590     0.3330     0.0480 nc         1 7RG      -0.513800
      3 C3           4.6120     1.6170    -0.2450 cd         1 7RG       0.317900
      4 C4           3.2630     1.9830    -0.3810 cd         1 7RG      -0.332600
      5 C5           2.6570     3.2650    -0.6930 c          1 7RG       0.620600
      6 O6           3.2670     4.3000    -0.9000 o          1 7RG      -0.533000
      7 N7           1.3010     3.1780    -0.7290 ns         1 7RG      -0.436400
      8 C8           0.5820     2.0290    -0.5010 cd         1 7RG       0.535900
      9 N9           1.1500     0.8500    -0.2170 nc         1 7RG      -0.626100
     10 C10          2.5230     0.8770    -0.1650 cc         1 7RG       0.140400
     11 C11         -0.9320     2.1420    -0.6030 c5         1 7RG      -0.119000
     12 C12         -1.6350     1.6100     0.6900 c5         1 7RG       0.172800
     13 N13         -2.5780     0.5740     0.1900 n3         1 7RG      -0.705600
     14 C14         -2.9290     0.9890    -1.1850 c5         1 7RG       0.164800
     15 C15         -1.5060     1.2330    -1.7380 c5         1 7RG      -0.057700
     16 C16         -3.7050     0.2380     1.0960 c3         1 7RG       0.135500
     17 C17         -4.5780    -0.9190     0.6070 ca         1 7RG       0.124300
     18 N18         -4.0930    -2.1710     0.7830 nb         1 7RG      -0.164000
     19 C19         -4.8640    -3.1880     0.3470 ca         1 7RG       0.107900
     20 C20         -6.1110    -2.9550    -0.2570 ca         1 7RG      -0.220000
     21 C21         -6.5290    -1.6200    -0.3920 ca         1 7RG       0.107900
     22 N22         -5.7650    -0.5970     0.0400 nb         1 7RG      -0.164000
     23 C23          3.0910    -1.5430     0.3960 c6         1 7RG       0.104300
     24 C24          3.5640    -1.9660     1.8130 c6         1 7RG      -0.125900
     25 C25          3.2320    -3.4550     2.0650 c6         1 7RG       0.155100
     26 O26          3.8150    -4.2680     1.0230 os         1 7RG      -0.445000
     27 C27          3.3190    -3.9770    -0.3010 c6         1 7RG       0.155100
     28 C28          3.6540    -2.5150    -0.6760 c6         1 7RG      -0.125900
     29 C29         -1.4530     1.8540    -3.1510 c3         1 7RG      -0.085100
     30 H3           5.4880     2.2450    -0.3490 h4         1 7RG       0.052100
     31 HN7          0.8160     4.0350    -0.9440 hn         1 7RG       0.326500
     32 H11         -1.2400     3.1820    -0.7650 hc         1 7RG       0.062700
     33 H12         -0.9330     1.1880     1.4230 h1         1 7RG       0.045200
     34 H12A        -2.1720     2.4300     1.1890 h1         1 7RG       0.045200
     35 H14         -3.4570     0.2030    -1.7420 h1         1 7RG       0.043700
     36 H14A        -3.5420     1.9020    -1.1980 h1         1 7RG       0.043700
     37 H15         -0.9740     0.2750    -1.7950 hc         1 7RG       0.095700
     38 H16         -3.3110    -0.0300     2.0860 h1         1 7RG       0.056200
     39 H16A        -4.3400     1.1230     1.2430 h1         1 7RG       0.056200
     40 H19         -4.4770    -4.1960     0.4850 h4         1 7RG       0.025600
     41 H20         -6.7290    -3.7770    -0.6060 ha         1 7RG       0.136000
     42 H21         -7.4840    -1.3660    -0.8500 h4         1 7RG       0.025600
     43 H23          1.9950    -1.6210     0.3730 h1         1 7RG       0.082700
     44 H24          4.6460    -1.8140     1.9170 hc         1 7RG       0.068200
     45 H24A         3.0800    -1.3420     2.5760 hc         1 7RG       0.068200
     46 H25          3.6370    -3.7720     3.0360 h1         1 7RG       0.047450
     47 H25A         2.1430    -3.6090     2.0810 h1         1 7RG       0.047450
     48 H27          3.7850    -4.6660    -1.0190 h1         1 7RG       0.047450
     49 H27A         2.2310    -4.1400    -0.3270 h1         1 7RG       0.047450
     50 H28          3.2340    -2.2760    -1.6620 hc         1 7RG       0.068200
     51 H28A         4.7440    -2.4040    -0.7590 hc         1 7RG       0.068200
     52 H29         -1.9870     2.8110    -3.1860 hc         1 7RG       0.038367
     53 H29A        -0.4170     2.0360    -3.4620 hc         1 7RG       0.038367
     54 H29B        -1.9120     1.1870    -3.8900 hc         1 7RG       0.038367
@<TRIPOS>BOND
     1     1     2 1   
     2     1    10 1   
     3     1    23 1   
     4     2     3 2   
     5     3     4 1   
     6     3    30 1   
     7     4     5 1   
     8     4    10 2   
     9     5     6 2   
    10     5     7 1   
    11     7     8 1   
    12     7    31 1   
    13     8     9 2   
    14     8    11 1   
    15     9    10 1   
    16    11    12 1   
    17    11    15 1   
    18    11    32 1   
    19    12    13 1   
    20    12    33 1   
    21    12    34 1   
    22    13    14 1   
    23    13    16 1   
    24    14    15 1   
    25    14    35 1   
    26    14    36 1   
    27    15    29 1   
    28    15    37 1   
    29    16    17 1   
    30    16    38 1   
    31    16    39 1   
    32    17    18 ar  
    33    17    22 ar  
    34    18    19 ar  
    35    19    20 ar  
    36    19    40 1   
    37    20    21 ar  
    38    20    41 1   
    39    21    22 ar  
    40    21    42 1   
    41    23    24 1   
    42    23    28 1   
    43    23    43 1   
    44    24    25 1   
    45    24    44 1   
    46    24    45 1   
    47    25    26 1   
    48    25    46 1   
    49    25    47 1   
    50    26    27 1   
    51    27    28 1   
    52    27    48 1   
    53    27    49 1   
    54    28    50 1   
    55    28    51 1   
    56    29    52 1   
    57    29    53 1   
    58    29    54 1   
@<TRIPOS>SUBSTRUCTURE
     1 7RG         1 TEMP              0 ****  ****    0 ROOT
