@<TRIPOS>MOLECULE
7RH
   54    57     1     0     0
SMALL
bcc


@<TRIPOS>ATOM
      1 O01        -10.7220     1.4300    10.5810 o          1 7RH      -0.607500
      2 C02        -11.2040     0.3860    10.9860 c          1 7RH       0.750100
      3 C04        -12.5740     0.3160     8.9560 c3         1 7RH       0.195100
      4 C05        -11.5690     0.1130     7.9240 c1         1 7RH      -0.184100
      5 C06        -10.7480    -0.0780     7.0630 cg         1 7RH      -0.023000
      6 C07         -9.7770    -0.2870     6.0590 cc         1 7RH      -0.179300
      7 C08         -9.7260    -1.3130     5.1300 cd         1 7RH      -0.106300
      8 C12         -8.6320     0.4860     5.7710 cc         1 7RH       0.343200
      9 C13        -12.7500    -1.4600    10.6100 cc         1 7RH       0.519800
     10 C15        -11.5510    -1.4990    12.4620 cd         1 7RH       0.179100
     11 C17        -10.0170    -0.0470    13.2930 cc         1 7RH      -0.065800
     12 C18         -9.1440     1.0990    13.4430 ce         1 7RH      -0.029200
     13 C19         -8.3900     1.3690    14.5150 cf         1 7RH      -0.237200
     14 C20         -7.4680     2.5190    14.6520 c          1 7RH       0.674300
     15 C23        -10.1850    -1.1040    14.1580 cd         1 7RH      -0.112300
     16 C25        -11.6070    -3.1440    14.3060 c3         1 7RH      -0.042700
     17 C26        -12.8670    -2.8070    15.0970 c          1 7RH       0.661100
     18 C29        -15.3510    -2.8770    16.8200 ca         1 7RH      -0.270300
     19 C30        -16.4680    -3.0800    17.6120 ca         1 7RH       0.427200
     20 C16        -10.8980    -0.3080    12.1970 cc         1 7RH      -0.246600
     21 C28        -14.5220    -3.9610    16.5260 ca         1 7RH       0.122600
     22 C32        -16.0400    -5.2850    17.8570 ca         1 7RH       0.440200
     23 C33        -14.9020    -5.1920    17.0760 ca         1 7RH      -0.163900
     24 N03        -12.1860    -0.2820    10.2340 n          1 7RH      -0.402300
     25 N09         -8.6310    -1.1080     4.3910 na         1 7RH       0.114400
     26 N11         -7.9550    -0.0230     4.7650 nd         1 7RH      -0.524800
     27 N14        -12.4790    -2.1030    11.6940 nd         1 7RH      -0.631100
     28 N21         -7.6250     3.5530    13.8020 nt         1 7RH      -0.672000
     29 N24        -11.0950    -1.9820    13.6440 na         1 7RH      -0.026100
     30 N27        -13.3830    -3.8900    15.7440 ns         1 7RH      -0.473100
     31 N31        -16.8200    -4.2510    18.1270 nb         1 7RH      -0.671000
     32 O22         -6.5940     2.5030    15.5100 o          1 7RH      -0.611100
     33 O35        -13.3300    -1.6920    15.1210 o          1 7RH      -0.534100
     34 CL34       -13.9660    -6.6180    16.7970 cl         1 7RH      -0.102400
     35 H042       -12.7620     1.3800     9.1060 h1         1 7RH       0.075700
     36 H041       -13.5200    -0.1300     8.6480 h1         1 7RH       0.075700
     37 H081       -10.3880    -2.1470     4.9630 h4         1 7RH       0.176000
     38 H121        -8.2970     1.3840     6.2680 h4         1 7RH       0.049100
     39 H131       -13.4860    -1.8660     9.9260 h5         1 7RH       0.051800
     40 H181        -9.1260     1.7620    12.5850 ha         1 7RH       0.144000
     41 H191        -8.3790     0.6960    15.3650 ha         1 7RH       0.142000
     42 H231        -9.7100    -1.3100    15.1040 h4         1 7RH       0.175000
     43 H252       -11.8300    -3.9190    13.5700 h1         1 7RH       0.090700
     44 H251       -10.8420    -3.5470    14.9730 h1         1 7RH       0.090700
     45 H291       -15.1410    -1.8910    16.4450 ha         1 7RH       0.179000
     46 H301       -17.1110    -2.2370    17.8380 h4         1 7RH       0.028100
     47 H102        -8.0760    -1.3210     2.3910 h1         1 7RH       0.059033
     48 H103        -7.1690    -2.3290     3.5360 h1         1 7RH       0.059033
     49 H101        -8.8450    -2.7350     3.1310 h1         1 7RH       0.059033
     50 H321       -16.3210    -6.2460    18.2740 h4         1 7RH       0.034100
     51 H211        -7.0280     4.3580    13.8920 hn         1 7RH       0.313000
     52 H212        -8.4300     3.6510    13.2100 hn         1 7RH       0.313000
     53 H271       -12.8760    -4.7580    15.6310 hn         1 7RH       0.331500
     54 C10         -8.1480    -1.9190     3.2970 c3         1 7RH       0.042600
@<TRIPOS>BOND
     1     1     2 2   
     2     2    20 1   
     3     2    24 1   
     4     3     4 1   
     5     3    24 1   
     6     3    35 1   
     7     3    36 1   
     8     4     5 3   
     9     5     6 1   
    10     6     7 2   
    11     6     8 1   
    12     7    25 1   
    13     7    37 1   
    14     8    26 2   
    15     8    38 1   
    16     9    24 1   
    17     9    27 2   
    18     9    39 1   
    19    10    20 2   
    20    10    27 1   
    21    10    29 1   
    22    11    12 1   
    23    11    15 2   
    24    11    20 1   
    25    12    13 2   
    26    12    40 1   
    27    13    14 1   
    28    13    41 1   
    29    14    28 1   
    30    14    32 2   
    31    15    29 1   
    32    15    42 1   
    33    16    17 1   
    34    16    29 1   
    35    16    43 1   
    36    16    44 1   
    37    17    30 1   
    38    17    33 2   
    39    18    19 ar  
    40    18    21 ar  
    41    18    45 1   
    42    19    31 ar  
    43    19    46 1   
    44    21    23 ar  
    45    21    30 1   
    46    22    23 ar  
    47    22    31 ar  
    48    22    50 1   
    49    23    34 1   
    50    25    26 1   
    51    25    54 1   
    52    28    51 1   
    53    28    52 1   
    54    30    53 1   
    55    47    54 1   
    56    48    54 1   
    57    49    54 1   
@<TRIPOS>SUBSTRUCTURE
     1 7RH         1 TEMP              0 ****  ****    0 ROOT
