@<TRIPOS>MOLECULE
7RH
   54    57     1     0     0
SMALL
No Charge or Current Charge


@<TRIPOS>ATOM
      1 O01        -10.9910     1.4300    11.0870 o          1 7RH      -0.532000
      2 C02        -11.2540     0.2980    11.4720 c          1 7RH       0.607600
      3 C04        -12.6030    -0.1510     9.4460 c3         1 7RH       0.195100
      4 C05        -11.7340    -0.5100     8.3180 c1         1 7RH      -0.184100
      5 C06        -10.9860    -0.8200     7.4130 cg         1 7RH      -0.023000
      6 C07        -10.0860    -1.1940     6.3820 cc         1 7RH      -0.114000
      7 C08        -10.2990    -2.0470     5.3430 cd         1 7RH      -0.139000
      8 C12         -8.7680    -0.7290     6.2540 cc         1 7RH       0.277900
      9 C13        -12.3100    -1.8680    11.2060 cc         1 7RH       0.519800
     10 C15        -11.0830    -1.5510    13.1090 cd         1 7RH       0.128400
     11 C17         -9.9570     0.3020    13.7410 cc         1 7RH      -0.065800
     12 C18         -9.4040     1.6550    13.7430 ce         1 7RH      -0.079200
     13 C19         -8.3430     2.0760    14.4960 cf         1 7RH      -0.287200
     14 C20         -7.7500     3.4360    14.5120 c          1 7RH       0.607300
     15 C23         -9.7800    -0.6500    14.7230 cd         1 7RH      -0.145000
     16 C25        -10.5830    -3.0460    15.1020 c3         1 7RH      -0.013400
     17 C26        -11.8640    -3.1060    15.9320 c          1 7RH       0.594100
     18 C29        -14.8620    -3.2000    16.8710 ca         1 7RH      -0.187000
     19 C30        -16.2330    -3.3320    17.1500 ca         1 7RH       0.361900
     20 C16        -10.7780    -0.2830    12.7320 cc         1 7RH      -0.246600
     21 C28        -14.3820    -3.4770    15.5730 ca         1 7RH       0.030000
     22 C32        -16.6860    -3.9810    14.9760 ca         1 7RH       0.374900
     23 C33        -15.3290    -3.8740    14.6070 ca         1 7RH      -0.007000
     24 N03        -12.0500    -0.5850    10.7440 n          1 7RH      -0.335300
     25 N09         -9.0880    -2.0500     4.6390 na         1 7RH       0.135800
     26 N11         -8.1280    -1.2220     5.2110 nd         1 7RH      -0.524800
     27 N14        -11.8700    -2.4000    12.3510 nd         1 7RH      -0.631100
     28 N21         -8.3030     4.3640    13.7060 nt         1 7RH      -0.605000
     29 N24        -10.4810    -1.7970    14.3360 na         1 7RH       0.046000
     30 N27        -13.0140    -3.3640    15.1970 ns         1 7RH      -0.147000
     31 N31        -17.1400    -3.7170    16.2250 nb         1 7RH      -0.671000
     32 O22         -6.8000     3.7250    15.2180 o          1 7RH      -0.611100
     33 O35        -11.8480    -2.9380    17.1460 o          1 7RH      -0.534100
     34 Cl34       -14.8420    -4.2450    12.9490 cl         1 7RH      -0.194000
     35 H042       -12.7680     0.9340     9.4430 h1         1 7RH       0.075700
     36 H041       -13.5850    -0.6210     9.2970 h1         1 7RH       0.075700
     37 H081       -11.1660    -2.6280     5.0520 h4         1 7RH       0.158000
     38 H121        -8.2530    -0.0340     6.9040 h4         1 7RH       0.049100
     39 H131       -12.9310    -2.4610    10.5460 h5         1 7RH       0.051800
     40 H181        -9.8880     2.3550    13.0640 ha         1 7RH       0.194000
     41 H191        -7.8570     1.3640    15.1610 ha         1 7RH       0.192000
     42 H231        -9.2290    -0.5960    15.6540 h4         1 7RH       0.157000
     43 H252       -10.5720    -3.8970    14.4120 h1         1 7RH       0.090700
     44 H251        -9.7260    -3.1310    15.7790 h1         1 7RH       0.090700
     45 H291       -14.2090    -2.8780    17.6740 ha         1 7RH       0.161000
     46 H301       -16.6170    -3.1210    18.1480 h4         1 7RH       0.028100
     47 H102        -8.5460    -2.1260     2.6050 h1         1 7RH       0.059033
     48 H103        -7.9370    -3.4800     3.6050 h1         1 7RH       0.059033
     49 H101        -9.6630    -3.4170     3.1380 h1         1 7RH       0.059033
     50 H321       -17.4330    -4.2880    14.2460 h4         1 7RH       0.034100
     51 H211        -7.9200     5.2970    13.6960 hn         1 7RH       0.313000
     52 H212        -9.0870     4.1280    13.1190 hn         1 7RH       0.313000
     53 H271       -12.8540    -3.4740    14.2030 hn         1 7RH       0.165000
     54 C10         -8.7900    -2.8160     3.4210 c3         1 7RH       0.071900
@<TRIPOS>BOND
     1     1     2 2   
     2     2    20 1   
     3     2    24 1   
     4     3     4 1   
     5     3    24 1   
     6     3    35 1   
     7     3    36 1   
     8     4     5 3   
     9     5     6 1   
    10     6     7 2   
    11     6     8 1   
    12     7    25 1   
    13     7    37 1   
    14     8    26 2   
    15     8    38 1   
    16     9    24 1   
    17     9    27 2   
    18     9    39 1   
    19    10    20 2   
    20    10    27 1   
    21    10    29 1   
    22    11    12 1   
    23    11    15 2   
    24    11    20 1   
    25    12    13 2   
    26    12    40 1   
    27    13    14 1   
    28    13    41 1   
    29    14    28 1   
    30    14    32 2   
    31    15    29 1   
    32    15    42 1   
    33    16    17 1   
    34    16    29 1   
    35    16    43 1   
    36    16    44 1   
    37    17    30 1   
    38    17    33 2   
    39    18    19 ar  
    40    18    21 ar  
    41    18    45 1   
    42    19    31 ar  
    43    19    46 1   
    44    21    23 ar  
    45    21    30 1   
    46    22    23 ar  
    47    22    31 ar  
    48    22    50 1   
    49    23    34 1   
    50    25    26 1   
    51    25    54 1   
    52    28    51 1   
    53    28    52 1   
    54    30    53 1   
    55    47    54 1   
    56    48    54 1   
    57    49    54 1   
@<TRIPOS>SUBSTRUCTURE
     1 7RH         1 TEMP              0 ****  ****    0 ROOT
