@<TRIPOS>MOLECULE
7RI
   22    23     1     0     0
SMALL
No Charge or Current Charge


@<TRIPOS>ATOM
      1 C10         23.0900   -24.5260    26.3610 ca         1 7RI      -0.190900
      2 C01         22.2020   -29.5560    25.9940 c3         1 7RI       0.097300
      3 C03         22.8720   -27.1310    26.1870 c          1 7RI       0.550800
      4 C04         22.2970   -25.7360    26.2340 cc         1 7RI       0.302900
      5 C07         22.1970   -23.4990    26.3630 ca         1 7RI      -0.045200
      6 C08         22.5930   -22.1600    26.4720 ca         1 7RI      -0.130000
      7 C09         23.9760   -21.8940    26.5800 ca         1 7RI      -0.049000
      8 C11         24.4730   -24.3000    26.4670 ca         1 7RI       0.012000
      9 C12         24.9080   -22.9600    26.5780 ca         1 7RI      -0.058900
     10 N02         21.9150   -28.1220    26.0620 ns         1 7RI      -0.493900
     11 N05         20.9770   -25.4440    26.1630 nd         1 7RI      -0.514100
     12 N06         20.9390   -24.0460    26.2460 na         1 7RI      -0.040400
     13 O14         24.0660   -27.4120    26.2500 o          1 7RI      -0.600100
     14 Br          26.7770   -22.5830    26.7260 br         1 7RI      -0.094100
     15 H1          21.2620   -30.1140    25.8970 h1         1 7RI       0.041367
     16 H2          22.8380   -29.7650    25.1240 h1         1 7RI       0.041367
     17 H3          22.7190   -29.8740    26.9090 h1         1 7RI       0.041367
     18 H4          21.8650   -21.3520    26.4720 ha         1 7RI       0.125000
     19 H5          24.3240   -20.8670    26.6660 ha         1 7RI       0.131000
     20 H6          25.1910   -25.1170    26.4650 ha         1 7RI       0.160000
     21 H7          20.9500   -27.8080    26.0170 hn         1 7RI       0.332500
     22 H8          20.0590   -23.5320    26.2180 hn         1 7RI       0.382000
@<TRIPOS>BOND
     1     1     4 1   
     2     1     5 ar  
     3     1     8 ar  
     4     2    10 1   
     5     2    15 1   
     6     2    16 1   
     7     2    17 1   
     8     3     4 1   
     9     3    10 1   
    10     3    13 2   
    11     4    11 2   
    12     5     6 ar  
    13     5    12 1   
    14     6     7 ar  
    15     6    18 1   
    16     7     9 ar  
    17     7    19 1   
    18     8     9 ar  
    19     8    20 1   
    20     9    14 1   
    21    10    21 1   
    22    11    12 1   
    23    12    22 1   
@<TRIPOS>SUBSTRUCTURE
     1 7RI         1 TEMP              0 ****  ****    0 ROOT
