@<TRIPOS>MOLECULE
7RI
   22    23     1     0     0
SMALL
bcc


@<TRIPOS>ATOM
      1 C10         23.1550   -24.5740    26.3770 ca         1 7RI      -0.190900
      2 C01         22.1740   -29.4880    25.9830 c3         1 7RI       0.097300
      3 C03         22.8250   -27.1510    26.2150 c          1 7RI       0.617800
      4 C04         22.3580   -25.7480    26.2590 cc         1 7RI       0.302900
      5 C07         22.2180   -23.5290    26.3710 ca         1 7RI      -0.045200
      6 C08         22.5930   -22.1860    26.4680 ca         1 7RI      -0.148000
      7 C09         23.9370   -21.9180    26.5650 ca         1 7RI      -0.067000
      8 C11         24.5240   -24.2890    26.4750 ca         1 7RI      -0.006000
      9 C12         24.8820   -22.9650    26.5650 ca         1 7RI      -0.058900
     10 N02         21.8740   -28.0780    26.0540 ns         1 7RI      -0.560900
     11 N05         21.0850   -25.4320    26.1900 nd         1 7RI      -0.514100
     12 N06         21.0030   -24.1160    26.2570 na         1 7RI       0.009900
     13 O14         24.0170   -27.4130    26.3210 o          1 7RI      -0.600100
     14 BR          26.7130   -22.5090    26.6930 br         1 7RI      -0.094100
     15 H1          21.2410   -30.0320    25.8740 h1         1 7RI       0.041367
     16 H2          22.8110   -29.7240    25.1290 h1         1 7RI       0.041367
     17 H3          22.6720   -29.8390    26.8870 h1         1 7RI       0.041367
     18 H4          21.8650   -21.3870    26.4660 ha         1 7RI       0.143000
     19 H5          24.2690   -20.8910    26.6410 ha         1 7RI       0.149000
     20 H6          25.2580   -25.0820    26.4770 ha         1 7RI       0.178000
     21 H7          20.9170   -27.7800    25.9630 hn         1 7RI       0.332500
     22 H8          20.1000   -23.6670    26.2220 hn         1 7RI       0.331700
@<TRIPOS>BOND
     1     1     4 1   
     2     1     5 ar  
     3     1     8 ar  
     4     2    10 1   
     5     2    15 1   
     6     2    16 1   
     7     2    17 1   
     8     3     4 1   
     9     3    10 1   
    10     3    13 2   
    11     4    11 2   
    12     5     6 ar  
    13     5    12 1   
    14     6     7 ar  
    15     6    18 1   
    16     7     9 ar  
    17     7    19 1   
    18     8     9 ar  
    19     8    20 1   
    20     9    14 1   
    21    10    21 1   
    22    11    12 1   
    23    12    22 1   
@<TRIPOS>SUBSTRUCTURE
     1 7RI         1 TEMP              0 ****  ****    0 ROOT
