@<TRIPOS>MOLECULE
7RL
   46    49     1     0     0
SMALL
No Charge or Current Charge


@<TRIPOS>ATOM
      1 C10        -18.3980    -4.6430    11.9510 ca         1 7RL      -0.149000
      2 C13        -16.2040    -2.9670    12.4600 ca         1 7RL      -0.053000
      3 C15        -11.6360    -2.1580    12.8890 cc         1 7RL       0.182400
      4 C17        -10.1240    -0.5170    13.1330 cd         1 7RL      -0.080000
      5 C28        -15.6480    -5.5320    14.9030 ca         1 7RL      -0.011000
      6 C11        -18.5630    -3.5010    12.7510 ca         1 7RL      -0.072000
      7 C16        -11.0900    -1.0810    12.2700 cd         1 7RL      -0.302600
      8 C25        -17.2290    -3.7880    16.3270 ca         1 7RL       0.359900
      9 C02        -11.5260    -0.6810    10.9300 c          1 7RL       0.625600
     10 C04        -12.9900    -2.5540    11.1290 cd         1 7RL       0.746800
     11 C07        -16.0310    -4.1040    11.6390 ca         1 7RL      -0.151300
     12 C08        -17.1410    -4.9420    11.4010 ca         1 7RL       0.178000
     13 C12        -17.4640    -2.6660    13.0070 ca         1 7RL      -0.126000
     14 C18        -10.0820    -1.2540    14.2910 cc         1 7RL      -0.199000
     15 C21        -12.7790    -3.1840    15.6660 c          1 7RL       0.591100
     16 C23        -15.0480    -4.3610    15.4080 ca         1 7RL       0.032000
     17 C24        -15.8750    -3.4730    16.1290 ca         1 7RL      -0.193000
     18 C27        -17.0170    -5.7640    15.1460 ca         1 7RL       0.374900
     19 F09        -17.0100    -6.0560    10.6450 f          1 7RL      -0.189000
     20 N03        -12.4950    -1.4970    10.4490 ns         1 7RL      -0.456400
     21 N05        -13.9740    -3.2550    10.5300 nu         1 7RL      -0.907400
     22 N14        -12.6140    -2.9420    12.3340 nc         1 7RL      -0.723100
     23 N19        -11.0310    -2.2750    14.1390 na         1 7RL       0.024000
     24 N22        -13.6640    -4.1310    15.1680 ns         1 7RL      -0.154000
     25 N26        -17.8010    -4.9160    15.8530 nb         1 7RL      -0.673000
     26 O01        -11.0860     0.2700    10.3030 o          1 7RL      -0.543000
     27 O30        -13.0870    -2.3210    16.4800 o          1 7RL      -0.524100
     28 H101       -19.2420    -5.2990    11.7570 ha         1 7RL       0.133000
     29 H131       -15.3640    -2.3140    12.6830 ha         1 7RL       0.115000
     30 H171        -9.5130     0.3570    12.9190 ha         1 7RL       0.147000
     31 H111       -19.5360    -3.2690    13.1790 ha         1 7RL       0.119000
     32 H251       -17.8780    -3.1130    16.8840 h4         1 7RL       0.027100
     33 H062       -14.7810    -5.1720    10.2320 h1         1 7RL       0.064200
     34 H061       -14.0610    -4.9530    11.8190 h1         1 7RL       0.064200
     35 H121       -17.5850    -1.7860    13.6340 ha         1 7RL       0.120000
     36 H181        -9.4790    -1.1390    15.1840 h4         1 7RL       0.148000
     37 H201       -11.2130    -4.2950    14.6820 h1         1 7RL       0.083700
     38 H202       -10.6610    -3.2200    15.9860 h1         1 7RL       0.083700
     39 H241       -15.5030    -2.5410    16.5390 ha         1 7RL       0.162000
     40 H271       -17.4990    -6.6650    14.7680 h4         1 7RL       0.034100
     41 H031       -12.8420    -1.2760     9.5310 hn         1 7RL       0.321500
     42 H051       -14.2760    -2.8940     9.6310 hn         1 7RL       0.504000
     43 H221       -13.2550    -4.7770    14.5050 hn         1 7RL       0.163000
     44 C06        -14.6620    -4.4490    11.0510 c3         1 7RL       0.301100
     45 C20        -11.3470    -3.3060    15.1360 c3         1 7RL      -0.003400
     46 Cl29       -14.7070    -6.7170    13.9920 cl         1 7RL      -0.195000
@<TRIPOS>BOND
     1     1     6 ar  
     2     1    12 ar  
     3     1    28 1   
     4     2    11 ar  
     5     2    13 ar  
     6     2    29 1   
     7     3     7 2   
     8     3    22 1   
     9     3    23 1   
    10     4     7 1   
    11     4    14 2   
    12     4    30 1   
    13     5    16 ar  
    14     5    18 ar  
    15     5    46 1   
    16     6    13 ar  
    17     6    31 1   
    18     7     9 1   
    19     8    17 ar  
    20     8    25 ar  
    21     8    32 1   
    22     9    20 1   
    23     9    26 2   
    24    10    20 1   
    25    10    21 1   
    26    10    22 2   
    27    11    12 ar  
    28    11    44 1   
    29    12    19 1   
    30    13    35 1   
    31    14    23 1   
    32    14    36 1   
    33    15    24 1   
    34    15    27 2   
    35    15    45 1   
    36    16    17 ar  
    37    16    24 1   
    38    17    39 1   
    39    18    25 ar  
    40    18    40 1   
    41    20    41 1   
    42    21    42 1   
    43    21    44 1   
    44    23    45 1   
    45    24    43 1   
    46    33    44 1   
    47    34    44 1   
    48    37    45 1   
    49    38    45 1   
@<TRIPOS>SUBSTRUCTURE
     1 7RL         1 TEMP              0 ****  ****    0 ROOT
