@<TRIPOS>MOLECULE
7RL
   46    49     1     0     0
SMALL
abcg2


@<TRIPOS>ATOM
      1 C10        -17.6750    -2.9630    11.2140 ca         1 7RL      -0.149000
      2 C13        -15.6410    -4.6190    12.1200 ca         1 7RL      -0.053000
      3 C15        -11.9540    -2.2380    12.4350 cc         1 7RL       0.182400
      4 C17        -10.5950    -0.6150    13.2500 cd         1 7RL      -0.080000
      5 C28        -15.5330    -5.4120    17.3710 ca         1 7RL      -0.011000
      6 C11        -17.7340    -3.5010    12.4930 ca         1 7RL      -0.072000
      7 C16        -11.2900    -1.0680    12.0900 cd         1 7RL      -0.302600
      8 C25        -17.4600    -3.5570    17.1710 ca         1 7RL       0.359900
      9 C02        -11.4150    -0.5990    10.7500 c          1 7RL       0.625600
     10 C04        -12.8630    -2.5640    10.4350 cd         1 7RL       0.746800
     11 C07        -15.5550    -4.0950    10.8350 ca         1 7RL      -0.151300
     12 C08        -16.5900    -3.2730    10.4170 ca         1 7RL       0.178000
     13 C12        -16.7200    -4.3330    12.9450 ca         1 7RL      -0.126000
     14 C18        -10.8620    -1.5160    14.2350 cc         1 7RL      -0.199000
     15 C21        -13.6100    -3.2690    15.0370 c          1 7RL       0.591100
     16 C23        -15.2900    -4.3320    16.5120 ca         1 7RL       0.032000
     17 C24        -16.3090    -3.3810    16.4250 ca         1 7RL      -0.193000
     18 C27        -16.7210    -5.4930    18.0740 ca         1 7RL       0.374900
     19 F09        -16.5400    -2.7620     9.1740 f          1 7RL      -0.189000
     20 N03        -12.2440    -1.4290     9.9870 ns         1 7RL      -0.456400
     21 N05        -13.6150    -3.2400     9.5510 nu         1 7RL      -0.907400
     22 N14        -12.7360    -3.0050    11.6560 nc         1 7RL      -0.723100
     23 N19        -11.6830    -2.5090    13.7320 na         1 7RL       0.024000
     24 N22        -14.1000    -4.2810    15.8140 ns         1 7RL      -0.154000
     25 N26        -17.6790    -4.5830    17.9830 nb         1 7RL      -0.673000
     26 O01        -10.9020     0.3860    10.2430 o          1 7RL      -0.543000
     27 O30        -14.1810    -2.2310    14.8080 o          1 7RL      -0.524100
     28 H101       -18.4580    -2.3170    10.8400 ha         1 7RL       0.133000
     29 H131       -14.8440    -5.2600    12.4770 ha         1 7RL       0.115000
     30 H171        -9.9760     0.2630    13.3440 ha         1 7RL       0.147000
     31 H111       -18.5760    -3.2680    13.1320 ha         1 7RL       0.119000
     32 H251       -18.2490    -2.8170    17.1000 h4         1 7RL       0.027100
     33 H062       -14.7280    -4.8640     9.0070 h1         1 7RL       0.064200
     34 H061       -13.7380    -5.1280    10.4240 h1         1 7RL       0.064200
     35 H121       -16.7650    -4.7530    13.9410 ha         1 7RL       0.120000
     36 H181       -10.5310    -1.5510    15.2600 h4         1 7RL       0.148000
     37 H201       -12.3320    -4.4720    13.8100 h1         1 7RL       0.083700
     38 H202       -11.5560    -3.8860    15.2700 h1         1 7RL       0.083700
     39 H241       -16.2180    -2.5180    15.7870 ha         1 7RL       0.162000
     40 H271       -16.8930    -6.3350    18.7350 h4         1 7RL       0.034100
     41 H031       -12.3970    -1.1360     9.0300 hn         1 7RL       0.321500
     42 H051       -13.7760    -2.8450     8.6400 hn         1 7RL       0.504000
     43 H221       -13.4970    -5.0850    15.9210 hn         1 7RL       0.163000
     44 C06        -14.3860    -4.4020     9.9320 c3         1 7RL       0.301100
     45 C20        -12.2370    -3.6030    14.4650 c3         1 7RL      -0.003400
     46 CL29       -14.3580    -6.6640    17.5720 cl         1 7RL      -0.195000
@<TRIPOS>BOND
     1     1     6 ar  
     2     1    12 ar  
     3     1    28 1   
     4     2    11 ar  
     5     2    13 ar  
     6     2    29 1   
     7     3     7 2   
     8     3    22 1   
     9     3    23 1   
    10     4     7 1   
    11     4    14 2   
    12     4    30 1   
    13     5    16 ar  
    14     5    18 ar  
    15     5    46 1   
    16     6    13 ar  
    17     6    31 1   
    18     7     9 1   
    19     8    17 ar  
    20     8    25 ar  
    21     8    32 1   
    22     9    20 1   
    23     9    26 2   
    24    10    20 1   
    25    10    21 1   
    26    10    22 2   
    27    11    12 ar  
    28    11    44 1   
    29    12    19 1   
    30    13    35 1   
    31    14    23 1   
    32    14    36 1   
    33    15    24 1   
    34    15    27 2   
    35    15    45 1   
    36    16    17 ar  
    37    16    24 1   
    38    17    39 1   
    39    18    25 ar  
    40    18    40 1   
    41    20    41 1   
    42    21    42 1   
    43    21    44 1   
    44    23    45 1   
    45    24    43 1   
    46    33    44 1   
    47    34    44 1   
    48    37    45 1   
    49    38    45 1   
@<TRIPOS>SUBSTRUCTURE
     1 7RL         1 TEMP              0 ****  ****    0 ROOT
