@<TRIPOS>MOLECULE
7RM
   42    44     1     0     0
SMALL
No Charge or Current Charge


@<TRIPOS>ATOM
      1 C01          0.3550     3.5090     0.7250 c3         1 7RM      -0.182100
      2 C02          1.2860     2.3920     1.1700 c          1 7RM       0.641100
      3 C09          1.6980    -1.0000    -0.5930 c3         1 7RM       0.210600
      4 C10          0.9490    -2.2970    -0.1830 c5         1 7RM       0.153300
      5 C11          0.3110    -3.0700    -1.4000 c5         1 7RM       0.090300
      6 C12         -1.1580    -3.3290    -0.9370 c5         1 7RM       0.103300
      7 C13         -1.3960    -2.1130     0.0170 c5         1 7RM       0.307300
      8 C16         -1.8440    -0.5040    -1.9330 cc         1 7RM       0.392700
      9 C18         -2.4900     1.2240    -0.8280 ca         1 7RM      -0.112600
     10 C19         -2.1590     0.2930     0.1230 ca         1 7RM       0.141500
     11 C21         -2.7450     1.7690     1.7700 ca         1 7RM       0.188900
     12 C23         -2.9760     2.4740    -0.3940 ca         1 7RM       0.452900
     13 N04          2.1300     1.9620     0.2040 ns         1 7RM      -0.631300
     14 N15         -1.7510    -0.8120    -0.5690 na         1 7RM      -0.300300
     15 N17         -2.2900     0.7500    -2.1270 nd         1 7RM      -0.547100
     16 N20         -2.2790     0.5400     1.4420 nb         1 7RM      -0.215000
     17 N22         -3.1040     2.7550     0.9120 nb         1 7RM      -0.299000
     18 N24         -3.3340     3.4590    -1.2590 nv         1 7RM      -1.061900
     19 O03          1.2620     1.9390     2.3020 o          1 7RM      -0.515100
     20 O06          4.0060     0.7500    -0.9590 o          1 7RM      -0.539500
     21 O07          4.0910     1.0860     1.5720 o          1 7RM      -0.539500
     22 O08          2.4100    -0.5070     0.5580 os         1 7RM      -0.552700
     23 O14         -0.1450    -2.0000     0.7270 os         1 7RM      -0.446000
     24 O25         -1.2060    -4.5950    -0.2680 oh         1 7RM      -0.697000
     25 O26          0.9620    -4.3250    -1.6860 oh         1 7RM      -0.700000
     26 S05          3.3350     0.8310     0.3420 s6         1 7RM       1.443500
     27 H1          -0.1600     3.2030    -0.1920 hc         1 7RM       0.068367
     28 H2          -0.3460     3.8110     1.5110 hc         1 7RM       0.068367
     29 H3           0.9600     4.3560     0.3820 hc         1 7RM       0.068367
     30 H4           2.3930    -1.2460    -1.4070 h1         1 7RM       0.062700
     31 H5           0.9760    -0.2610    -0.9680 h1         1 7RM       0.062700
     32 H6           1.6650    -2.9400     0.3460 h1         1 7RM       0.108700
     33 H7           0.3110    -2.4350    -2.2970 h1         1 7RM       0.043700
     34 H8          -1.8580    -3.3220    -1.7840 h1         1 7RM       0.069700
     35 H9          -2.2080    -2.3440     0.7200 h2         1 7RM       0.140700
     36 H10         -1.5950    -1.2110    -2.7140 h5         1 7RM       0.058800
     37 H11         -2.8450     1.9850     2.8320 h5         1 7RM       0.052100
     38 H12          2.1150     2.3800    -0.7080 hn         1 7RM       0.342500
     39 H13         -3.0500     3.3430    -2.2290 hn         1 7RM       0.509500
     40 H14         -3.4000     4.4110    -0.9110 hn         1 7RM       0.509500
     41 H15         -0.3660    -5.0200    -0.5890 ho         1 7RM       0.528000
     42 H16          1.7100    -4.1470    -2.3070 ho         1 7RM       0.520000
@<TRIPOS>BOND
     1     1     2 1   
     2     1    27 1   
     3     1    28 1   
     4     1    29 1   
     5     2    13 1   
     6     2    19 2   
     7     3     4 1   
     8     3    22 1   
     9     3    30 1   
    10     3    31 1   
    11     4     5 1   
    12     4    23 1   
    13     4    32 1   
    14     5     6 1   
    15     5    25 1   
    16     5    33 1   
    17     6     7 1   
    18     6    24 1   
    19     6    34 1   
    20     7    14 1   
    21     7    23 1   
    22     7    35 1   
    23     8    14 1   
    24     8    15 2   
    25     8    36 1   
    26     9    10 ar  
    27     9    12 ar  
    28     9    15 1   
    29    10    14 1   
    30    10    16 ar  
    31    11    16 ar  
    32    11    17 ar  
    33    11    37 1   
    34    12    17 ar  
    35    12    18 1   
    36    13    26 1   
    37    13    38 1   
    38    18    39 1   
    39    18    40 1   
    40    20    26 2   
    41    21    26 2   
    42    22    26 1   
    43    24    41 1   
    44    25    42 1   
@<TRIPOS>SUBSTRUCTURE
     1 7RM         1 TEMP              0 ****  ****    0 ROOT
