@<TRIPOS>MOLECULE
7RM
   42    44     1     0     0
SMALL
abcg2


@<TRIPOS>ATOM
      1 C01          0.4000     2.5460     0.8260 c3         1 7RM      -0.182100
      2 C02          1.5800     1.6620     1.0990 c          1 7RM       0.641100
      3 C09          2.4790    -1.4600    -0.8360 c3         1 7RM       0.210600
      4 C10          1.2530    -2.0640    -0.2050 c5         1 7RM       0.153300
      5 C11          0.3630    -2.7730    -1.2230 c5         1 7RM       0.090300
      6 C12         -1.0120    -2.6830    -0.5440 c5         1 7RM       0.103300
      7 C13         -0.9260    -1.3410     0.1930 c5         1 7RM       0.307300
      8 C16         -1.3470     0.2220    -1.7490 cc         1 7RM       0.392700
      9 C18         -2.7770     1.5310    -0.9150 ca         1 7RM      -0.112600
     10 C19         -2.4990     0.6000     0.0720 ca         1 7RM       0.141500
     11 C21         -3.8690     1.5540     1.4950 ca         1 7RM       0.188900
     12 C23         -3.7050     2.5350    -0.5810 ca         1 7RM       0.452900
     13 N04          2.4310     1.5350     0.0100 ns         1 7RM      -0.631300
     14 N15         -1.5800    -0.2470    -0.4830 na         1 7RM      -0.300300
     15 N17         -2.0440     1.2770    -2.0460 nd         1 7RM      -0.547100
     16 N20         -3.0160     0.5640     1.2970 nb         1 7RM      -0.215000
     17 N22         -4.2350     2.5130     0.6480 nb         1 7RM      -0.299000
     18 N24         -4.0680     3.4930    -1.4320 nv         1 7RM      -1.061900
     19 O03          1.8140     1.1250     2.1510 o          1 7RM      -0.515100
     20 O06          4.3760     0.7910    -1.3030 o          1 7RM      -0.539500
     21 O07          4.5980     0.8720     1.1920 o          1 7RM      -0.539500
     22 O08          3.2830    -0.8580     0.2030 os         1 7RM      -0.552700
     23 O14          0.4410    -1.0380     0.3350 os         1 7RM      -0.446000
     24 O25         -1.1470    -3.6810     0.4300 oh         1 7RM      -0.697000
     25 O26          0.8060    -4.0800    -1.4360 oh         1 7RM      -0.700000
     26 S05          3.8160     0.6220     0.0150 s6         1 7RM       1.443500
     27 H1          -0.0260     2.3700    -0.1610 hc         1 7RM       0.068367
     28 H2          -0.3630     2.3930     1.5840 hc         1 7RM       0.068367
     29 H3           0.7170     3.5900     0.8610 hc         1 7RM       0.068367
     30 H4           3.0790    -2.2340    -1.3120 h1         1 7RM       0.062700
     31 H5           2.1980    -0.7280    -1.5970 h1         1 7RM       0.062700
     32 H6           1.5510    -2.7720     0.5800 h1         1 7RM       0.108700
     33 H7           0.3440    -2.2010    -2.1600 h1         1 7RM       0.043700
     34 H8          -1.8380    -2.7010    -1.2640 h1         1 7RM       0.069700
     35 H9          -1.4090    -1.4190     1.1710 h2         1 7RM       0.140700
     36 H10         -0.6490    -0.2580    -2.4190 h5         1 7RM       0.058800
     37 H11         -4.3340     1.5960     2.4740 h5         1 7RM       0.052100
     38 H12          2.2390     2.0340    -0.8500 hn         1 7RM       0.342500
     39 H13         -3.6790     3.5400    -2.3570 hn         1 7RM       0.509500
     40 H14         -4.7100     4.2120    -1.1470 hn         1 7RM       0.509500
     41 H15         -0.7740    -4.4970     0.0720 ho         1 7RM       0.528000
     42 H16          0.4580    -4.3970    -2.2760 ho         1 7RM       0.520000
@<TRIPOS>BOND
     1     1     2 1   
     2     1    27 1   
     3     1    28 1   
     4     1    29 1   
     5     2    13 1   
     6     2    19 2   
     7     3     4 1   
     8     3    22 1   
     9     3    30 1   
    10     3    31 1   
    11     4     5 1   
    12     4    23 1   
    13     4    32 1   
    14     5     6 1   
    15     5    25 1   
    16     5    33 1   
    17     6     7 1   
    18     6    24 1   
    19     6    34 1   
    20     7    14 1   
    21     7    23 1   
    22     7    35 1   
    23     8    14 1   
    24     8    15 2   
    25     8    36 1   
    26     9    10 ar  
    27     9    12 ar  
    28     9    15 1   
    29    10    14 1   
    30    10    16 ar  
    31    11    16 ar  
    32    11    17 ar  
    33    11    37 1   
    34    12    17 ar  
    35    12    18 1   
    36    13    26 1   
    37    13    38 1   
    38    18    39 1   
    39    18    40 1   
    40    20    26 2   
    41    21    26 2   
    42    22    26 1   
    43    24    41 1   
    44    25    42 1   
@<TRIPOS>SUBSTRUCTURE
     1 7RM         1 TEMP              0 ****  ****    0 ROOT
