@<TRIPOS>MOLECULE
7RN
   26    27     1     0     0
SMALL
bcc


@<TRIPOS>ATOM
      1 C01         25.1770   -19.1010    24.6690 c3         1 7RN      -0.023800
      2 C02         24.1330   -20.1510    24.8390 cc         1 7RN      -0.051400
      3 C03         22.7890   -19.9910    24.9990 cd         1 7RN      -0.154000
      4 C04         22.0860   -21.2140    25.1410 cd         1 7RN      -0.141000
      5 C05         22.9060   -22.3070    25.0850 cc         1 7RN      -0.015100
      6 C06         22.5700   -23.7090    25.1890 cc         1 7RN      -0.024300
      7 C07         23.3660   -24.8360    25.2320 cd         1 7RN      -0.243300
      8 C08         22.4620   -25.9030    25.3350 cd         1 7RN       0.261800
      9 C09         22.8060   -27.3420    25.4110 c          1 7RN       0.597600
     10 C11         21.9380   -29.6140    25.5640 c3         1 7RN       0.097300
     11 N10         21.7680   -28.1830    25.4910 ns         1 7RN      -0.564900
     12 N13         21.2110   -25.4740    25.3550 nc         1 7RN      -0.516800
     13 N14         21.2970   -24.1610    25.2670 na         1 7RN       0.018400
     14 O12         23.9740   -27.7080    25.3970 o          1 7RN      -0.601100
     15 S15         24.5480   -21.8230    24.8560 ss         1 7RN      -0.045800
     16 H1          25.9130   -19.1310    25.4740 hc         1 7RN       0.050033
     17 H2          25.7160   -19.2130    23.7280 hc         1 7RN       0.050033
     18 H3          24.7130   -18.1160    24.6750 hc         1 7RN       0.050033
     19 H4          22.3130   -19.0200    25.0190 ha         1 7RN       0.154000
     20 H5          21.0150   -21.2690    25.2840 ha         1 7RN       0.144000
     21 H6          24.4420   -24.8830    25.1980 ha         1 7RN       0.183000
     22 H7          20.9550   -30.0760    25.5940 h1         1 7RN       0.039700
     23 H8          22.4710   -30.0010    24.6960 h1         1 7RN       0.039700
     24 H9          22.4830   -29.9120    26.4610 h1         1 7RN       0.039700
     25 H10         20.8350   -27.8030    25.4970 hn         1 7RN       0.332500
     26 H11         20.4500   -23.6120    25.2560 hn         1 7RN       0.324700
@<TRIPOS>BOND
     1     1     2 1   
     2     1    16 1   
     3     1    17 1   
     4     1    18 1   
     5     2     3 2   
     6     2    15 1   
     7     3     4 1   
     8     3    19 1   
     9     4     5 2   
    10     4    20 1   
    11     5     6 1   
    12     5    15 1   
    13     6     7 2   
    14     6    13 1   
    15     7     8 1   
    16     7    21 1   
    17     8     9 1   
    18     8    12 2   
    19     9    11 1   
    20     9    14 2   
    21    10    11 1   
    22    10    22 1   
    23    10    23 1   
    24    10    24 1   
    25    11    25 1   
    26    12    13 1   
    27    13    26 1   
@<TRIPOS>SUBSTRUCTURE
     1 7RN         1 TEMP              0 ****  ****    0 ROOT
