@<TRIPOS>MOLECULE
7RN
   26    27     1     0     0
SMALL
No Charge or Current Charge


@<TRIPOS>ATOM
      1 C01         25.1960   -19.0310    24.7090 c3         1 7RN      -0.023800
      2 C02         24.1740   -20.1250    24.8520 cc         1 7RN      -0.196300
      3 C03         22.8100   -19.9970    24.9520 cd         1 7RN      -0.136000
      4 C04         22.1250   -21.2370    25.0770 cd         1 7RN      -0.123000
      5 C05         22.9720   -22.3170    25.0740 cc         1 7RN      -0.160000
      6 C06         22.5280   -23.6770    25.1870 cc         1 7RN      -0.075000
      7 C07         23.2910   -24.8040    25.1930 cd         1 7RN      -0.160000
      8 C08         22.4090   -25.9060    25.3260 cd         1 7RN       0.196500
      9 C09         22.8390   -27.3500    25.3760 c          1 7RN       0.530600
     10 C11         21.9310   -29.6930    25.5830 c3         1 7RN       0.097300
     11 N10         21.7900   -28.2380    25.5100 ns         1 7RN      -0.497900
     12 N13         21.1340   -25.5090    25.4030 nc         1 7RN      -0.516800
     13 N14         21.2200   -24.1250    25.3160 na         1 7RN       0.018800
     14 O12         24.0030   -27.7320    25.3070 o          1 7RN      -0.601100
     15 S15         24.6560   -21.8230    24.9130 ss         1 7RN       0.244000
     16 H1          25.9060   -19.0470    25.5450 hc         1 7RN       0.050033
     17 H2          25.7660   -19.1480    23.7790 hc         1 7RN       0.050033
     18 H3          24.7210   -18.0430    24.6900 hc         1 7RN       0.050033
     19 H4          22.3000   -19.0380    24.9360 ha         1 7RN       0.136000
     20 H5          21.0450   -21.3070    25.1660 ha         1 7RN       0.126000
     21 H6          24.3710   -24.8600    25.1110 ha         1 7RN       0.165000
     22 H7          20.9400   -30.1530    25.6870 h1         1 7RN       0.039700
     23 H8          22.4080   -30.0650    24.6670 h1         1 7RN       0.039700
     24 H9          22.5480   -29.9610    26.4500 h1         1 7RN       0.039700
     25 H10         20.8630   -27.8260    25.5580 hn         1 7RN       0.332500
     26 H11         20.3880   -23.5390    25.3470 hn         1 7RN       0.375000
@<TRIPOS>BOND
     1     1     2 1   
     2     1    16 1   
     3     1    17 1   
     4     1    18 1   
     5     2     3 2   
     6     2    15 1   
     7     3     4 1   
     8     3    19 1   
     9     4     5 2   
    10     4    20 1   
    11     5     6 1   
    12     5    15 1   
    13     6     7 2   
    14     6    13 1   
    15     7     8 1   
    16     7    21 1   
    17     8     9 1   
    18     8    12 2   
    19     9    11 1   
    20     9    14 2   
    21    10    11 1   
    22    10    22 1   
    23    10    23 1   
    24    10    24 1   
    25    11    25 1   
    26    12    13 1   
    27    13    26 1   
@<TRIPOS>SUBSTRUCTURE
     1 7RN         1 TEMP              0 ****  ****    0 ROOT
