@<TRIPOS>MOLECULE
7RO
   62    65     1     0     0
SMALL
abcg2


@<TRIPOS>ATOM
      1 O2           2.5700     2.0130    -0.9510 o          1 7RO      -0.501000
      2 C20          3.2200     1.1740    -0.3830 c          1 7RO       0.672100
      3 O1           4.4130     1.2990     0.1300 os         1 7RO      -0.445100
      4 C21          5.2470     2.4890    -0.0470 c3         1 7RO       0.224000
      5 C24          4.6060     3.6920     0.6300 c3         1 7RO      -0.111767
      6 C23          6.5360     2.1010     0.6650 c3         1 7RO      -0.111767
      7 C22          5.5160     2.7420    -1.5230 c3         1 7RO      -0.111767
      8 N5           2.7190    -0.1140    -0.1610 n          1 7RO      -0.087600
      9 C4           3.4370    -1.2760     0.1990 cc         1 7RO       0.095400
     10 C3           4.8780    -1.4140     0.0810 cc         1 7RO      -0.160800
     11 C1           5.7140    -1.1620    -1.0230 cc         1 7RO       0.268900
     12 N1           6.9650    -1.4800    -0.7580 nd         1 7RO      -0.529800
     13 C2           5.7350    -1.9150     1.0380 cd         1 7RO      -0.141000
     14 N            6.9610    -1.9310     0.4940 na         1 7RO       0.132800
     15 C            8.1880    -2.3810     1.1060 c3         1 7RO       0.072900
     16 C19          1.3640    -0.3820    -0.0530 ca         1 7RO      -0.005000
     17 C6           1.2360    -1.7060     0.4090 ca         1 7RO      -0.185800
     18 C5           2.5550    -2.2430     0.5470 cd         1 7RO      -0.195200
     19 C18          0.2450     0.3940    -0.2810 ca         1 7RO      -0.221000
     20 C8          -0.9910    -0.2170    -0.0330 ca         1 7RO       0.620900
     21 N2          -1.1250    -1.4700     0.3920 nb         1 7RO      -0.742000
     22 C7          -0.0410    -2.2000     0.6080 ca         1 7RO       0.423900
     23 N3          -2.1190     0.5540    -0.2430 nu         1 7RO      -0.937900
     24 C9          -3.4560     0.2430    -0.1960 ca         1 7RO       0.360000
     25 C17         -3.9770    -1.0300     0.0750 ca         1 7RO      -0.157000
     26 C16         -5.3400    -1.2620     0.0690 ca         1 7RO      -0.048000
     27 C12         -6.2510    -0.2430    -0.1870 ca         1 7RO      -0.184600
     28 C11         -5.7560     1.0350    -0.4200 ca         1 7RO      -0.020000
     29 C10         -4.3970     1.2630    -0.4420 ca         1 7RO       0.031000
     30 CL          -3.8460     2.8780    -0.7820 cl         1 7RO      -0.212000
     31 C13         -7.7270    -0.4400    -0.1020 c          1 7RO       0.621700
     32 O           -8.4120     0.3600     0.5260 o          1 7RO      -0.597100
     33 N4          -8.2530    -1.5300    -0.6970 n          1 7RO      -0.409800
     34 C15         -9.6530    -1.8380    -0.4850 c3         1 7RO       0.088800
     35 C14         -7.6110    -2.2830    -1.7570 c3         1 7RO       0.088800
     36 H241         4.3420     3.4680     1.6650 hc         1 7RO       0.053589
     37 H242         5.3230     4.5130     0.6430 hc         1 7RO       0.053589
     38 H243         3.7170     4.0360     0.1060 hc         1 7RO       0.053589
     39 H231         6.9900     1.2220     0.2080 hc         1 7RO       0.053589
     40 H232         7.2480     2.9230     0.6010 hc         1 7RO       0.053589
     41 H233         6.3610     1.8890     1.7200 hc         1 7RO       0.053589
     42 H221         4.6300     3.0710    -2.0610 hc         1 7RO       0.053589
     43 H222         6.2660     3.5290    -1.6140 hc         1 7RO       0.053589
     44 H223         5.9150     1.8510    -2.0090 hc         1 7RO       0.053589
     45 H5           2.8190    -3.2530     0.8170 ha         1 7RO       0.210000
     46 H1           5.4390    -0.7740    -1.9920 h4         1 7RO       0.042100
     47 H2           5.5480    -2.2380     2.0490 h4         1 7RO       0.159000
     48 HC1          8.9280    -1.5840     1.0980 h1         1 7RO       0.057700
     49 HC2          7.9870    -2.6650     2.1340 h1         1 7RO       0.057700
     50 HC3          8.5840    -3.2430     0.5720 h1         1 7RO       0.057700
     51 H18          0.2940     1.4100    -0.6430 ha         1 7RO       0.153000
     52 H7          -0.2000    -3.2150     0.9550 h4         1 7RO       0.023100
     53 H3          -1.9140     1.5050    -0.5080 hn         1 7RO       0.509000
     54 H17         -3.3000    -1.8390     0.2920 ha         1 7RO       0.157000
     55 H16         -5.6880    -2.2630     0.2870 ha         1 7RO       0.120000
     56 H11         -6.4350     1.8580    -0.6010 ha         1 7RO       0.142000
     57 H151       -10.2980    -1.3020    -1.1850 h1         1 7RO       0.040700
     58 H152        -9.8010    -2.9060    -0.6340 h1         1 7RO       0.040700
     59 H153        -9.9580    -1.5890     0.5280 h1         1 7RO       0.040700
     60 H141        -7.3780    -3.3010    -1.4400 h1         1 7RO       0.040700
     61 H142        -8.2830    -2.3400    -2.6150 h1         1 7RO       0.040700
     62 H143        -6.6960    -1.8030    -2.0880 h1         1 7RO       0.040700
@<TRIPOS>BOND
     1     1     2 2   
     2     2     3 1   
     3     2     8 1   
     4     3     4 1   
     5     4     5 1   
     6     4     6 1   
     7     4     7 1   
     8     5    36 1   
     9     5    37 1   
    10     5    38 1   
    11     6    39 1   
    12     6    40 1   
    13     6    41 1   
    14     7    42 1   
    15     7    43 1   
    16     7    44 1   
    17     8     9 1   
    18     8    16 1   
    19     9    10 1   
    20     9    18 2   
    21    10    11 1   
    22    10    13 2   
    23    11    12 2   
    24    11    46 1   
    25    12    14 1   
    26    13    14 1   
    27    13    47 1   
    28    14    15 1   
    29    15    48 1   
    30    15    49 1   
    31    15    50 1   
    32    16    17 ar  
    33    16    19 ar  
    34    17    18 1   
    35    17    22 ar  
    36    18    45 1   
    37    19    20 ar  
    38    19    51 1   
    39    20    21 ar  
    40    20    23 1   
    41    21    22 ar  
    42    22    52 1   
    43    23    24 1   
    44    23    53 1   
    45    24    25 ar  
    46    24    29 ar  
    47    25    26 ar  
    48    25    54 1   
    49    26    27 ar  
    50    26    55 1   
    51    27    28 ar  
    52    27    31 1   
    53    28    29 ar  
    54    28    56 1   
    55    29    30 1   
    56    31    32 2   
    57    31    33 1   
    58    33    34 1   
    59    33    35 1   
    60    34    57 1   
    61    34    58 1   
    62    34    59 1   
    63    35    60 1   
    64    35    61 1   
    65    35    62 1   
@<TRIPOS>SUBSTRUCTURE
     1 7RO         1 TEMP              0 ****  ****    0 ROOT
