@<TRIPOS>MOLECULE
7RO
   62    65     1     0     0
SMALL
No Charge or Current Charge


@<TRIPOS>ATOM
      1 O2           2.7540     2.0280    -1.2820 o          1 7RO      -0.501000
      2 C20          3.4000     1.2160    -0.6330 c          1 7RO       0.672100
      3 O1           4.6080     1.4920    -0.0300 os         1 7RO      -0.445100
      4 C21          5.3040     2.7490    -0.1880 c3         1 7RO       0.224000
      5 C24          4.4610     3.8920     0.4330 c3         1 7RO      -0.111767
      6 C23          6.6060     2.5590     0.6200 c3         1 7RO      -0.111767
      7 C22          5.6420     2.9850    -1.6830 c3         1 7RO      -0.111767
      8 N5           2.8570    -0.0110    -0.1750 n          1 7RO      -0.087600
      9 C4           3.5330    -1.0680     0.4690 cc         1 7RO       0.095400
     10 C3           4.9230    -1.4330     0.2910 cc         1 7RO      -0.160800
     11 C1           5.8650    -0.9440    -0.6340 cc         1 7RO       0.268900
     12 N1           7.0420    -1.5320    -0.5570 nd         1 7RO      -0.529800
     13 C2           5.5520    -2.4270     0.9830 cd         1 7RO      -0.141000
     14 N            6.8500    -2.4540     0.4630 na         1 7RO       0.132800
     15 C            7.9390    -3.3460     0.8830 c3         1 7RO       0.072900
     16 C19          1.4560    -0.2430     0.0400 ca         1 7RO      -0.005000
     17 C6           1.3060    -1.3330     0.8730 ca         1 7RO      -0.185800
     18 C5           2.6360    -1.8490     1.1690 cd         1 7RO      -0.195200
     19 C18          0.3110     0.4250    -0.4100 ca         1 7RO      -0.221000
     20 C8          -0.9340    -0.0730     0.0170 ca         1 7RO       0.620900
     21 N2          -1.0860    -1.1250     0.8420 nb         1 7RO      -0.742000
     22 C7           0.0310    -1.7650     1.2690 ca         1 7RO       0.423900
     23 N3          -2.0960     0.5600    -0.3600 nu         1 7RO      -0.937900
     24 C9          -3.4630     0.2520    -0.2850 ca         1 7RO       0.360000
     25 C17         -3.9270    -1.0760    -0.2970 ca         1 7RO      -0.157000
     26 C16         -5.3030    -1.3610    -0.2440 ca         1 7RO      -0.048000
     27 C12         -6.2510    -0.3150    -0.2020 ca         1 7RO      -0.184600
     28 C11         -5.7870     1.0170    -0.1840 ca         1 7RO      -0.020000
     29 C10         -4.4110     1.3010    -0.2390 ca         1 7RO       0.031000
     30 Cl          -3.8970     2.9940    -0.2450 cl         1 7RO      -0.212000
     31 C13         -7.7410    -0.5780    -0.1220 c          1 7RO       0.621700
     32 O           -8.4640     0.1820     0.5110 o          1 7RO      -0.597100
     33 N4          -8.2680    -1.7530    -0.7080 n          1 7RO      -0.409800
     34 C15         -9.6710    -2.1350    -0.4310 c3         1 7RO       0.088800
     35 C14         -7.6870    -2.3100    -1.9520 c3         1 7RO       0.088800
     36 H241         4.0930     3.6080     1.4260 hc         1 7RO       0.053589
     37 H242         5.0680     4.7980     0.5430 hc         1 7RO       0.053589
     38 H243         3.6010     4.1550    -0.1930 hc         1 7RO       0.053589
     39 H231         7.1970     1.7270     0.2180 hc         1 7RO       0.053589
     40 H232         7.2250     3.4630     0.5840 hc         1 7RO       0.053589
     41 H233         6.3830     2.3410     1.6720 hc         1 7RO       0.053589
     42 H221         4.7530     3.2420    -2.2700 hc         1 7RO       0.053589
     43 H222         6.3480     3.8170    -1.7860 hc         1 7RO       0.053589
     44 H223         6.1040     2.0950    -2.1260 hc         1 7RO       0.053589
     45 H5           2.8670    -2.7590     1.7150 ha         1 7RO       0.210000
     46 H1           5.7210    -0.1960    -1.4000 h4         1 7RO       0.042100
     47 H2           5.2150    -3.0880     1.7730 h4         1 7RO       0.159000
     48 HC1          8.8220    -2.7500     1.1410 h1         1 7RO       0.057700
     49 HC2          7.6250    -3.9260     1.7590 h1         1 7RO       0.057700
     50 HC3          8.1870    -4.0310     0.0640 h1         1 7RO       0.057700
     51 H18          0.3630     1.2870    -1.0660 ha         1 7RO       0.153000
     52 H7          -0.1020    -2.6230     1.9260 h4         1 7RO       0.023100
     53 H3          -1.9250     1.5190    -0.6500 hn         1 7RO       0.509000
     54 H17         -3.2230    -1.8990    -0.3540 ha         1 7RO       0.157000
     55 H16         -5.6200    -2.4010    -0.2140 ha         1 7RO       0.120000
     56 H11         -6.4960     1.8410    -0.1410 ha         1 7RO       0.142000
     57 H151       -10.3520    -1.4400    -0.9380 h1         1 7RO       0.040700
     58 H152        -9.8630    -3.1540    -0.7900 h1         1 7RO       0.040700
     59 H153        -9.8600    -2.1040     0.6500 h1         1 7RO       0.040700
     60 H141        -7.1470    -3.2380    -1.7260 h1         1 7RO       0.040700
     61 H142        -8.4850    -2.5350    -2.6720 h1         1 7RO       0.040700
     62 H143        -7.0000    -1.5920    -2.4170 h1         1 7RO       0.040700
@<TRIPOS>BOND
     1     1     2 2   
     2     2     3 1   
     3     2     8 1   
     4     3     4 1   
     5     4     5 1   
     6     4     6 1   
     7     4     7 1   
     8     5    36 1   
     9     5    37 1   
    10     5    38 1   
    11     6    39 1   
    12     6    40 1   
    13     6    41 1   
    14     7    42 1   
    15     7    43 1   
    16     7    44 1   
    17     8     9 1   
    18     8    16 1   
    19     9    10 1   
    20     9    18 2   
    21    10    11 1   
    22    10    13 2   
    23    11    12 2   
    24    11    46 1   
    25    12    14 1   
    26    13    14 1   
    27    13    47 1   
    28    14    15 1   
    29    15    48 1   
    30    15    49 1   
    31    15    50 1   
    32    16    17 ar  
    33    16    19 ar  
    34    17    18 1   
    35    17    22 ar  
    36    18    45 1   
    37    19    20 ar  
    38    19    51 1   
    39    20    21 ar  
    40    20    23 1   
    41    21    22 ar  
    42    22    52 1   
    43    23    24 1   
    44    23    53 1   
    45    24    25 ar  
    46    24    29 ar  
    47    25    26 ar  
    48    25    54 1   
    49    26    27 ar  
    50    26    55 1   
    51    27    28 ar  
    52    27    31 1   
    53    28    29 ar  
    54    28    56 1   
    55    29    30 1   
    56    31    32 2   
    57    31    33 1   
    58    33    34 1   
    59    33    35 1   
    60    34    57 1   
    61    34    58 1   
    62    34    59 1   
    63    35    60 1   
    64    35    61 1   
    65    35    62 1   
@<TRIPOS>SUBSTRUCTURE
     1 7RO         1 TEMP              0 ****  ****    0 ROOT
