@<TRIPOS>MOLECULE
7RQ
   89    94     1     0     0
SMALL
No Charge or Current Charge


@<TRIPOS>ATOM
      1 C10         -7.6150    -1.4180    88.5820 ca         1 7RQ       0.251000
      2 C13         -8.5360    -3.3650    90.4230 ca         1 7RQ      -0.081000
      3 C15         -8.6010    -1.0930    89.5200 ca         1 7RQ      -0.146000
      4 C17         -9.9710    -3.9000    92.2820 ca         1 7RQ      -0.133000
      5 C20        -10.4520    -4.8130    93.2350 ca         1 7RQ      -0.078000
      6 C21        -11.4240    -4.4080    94.1660 ca         1 7RQ      -0.186000
      7 C22        -11.9300    -3.0900    94.1620 ca         1 7RQ       0.334000
      8 C26        -13.8650    -3.6580    95.6940 c3         1 7RQ       0.209600
      9 C28         -5.6250    -4.4140    87.5130 ca         1 7RQ      -0.120000
     10 C01         -1.1620    -2.9020    86.7810 ca         1 7RQ      -0.033600
     11 C02         -1.2420    -2.4410    85.4390 ca         1 7RQ      -0.144200
     12 C03         -0.4160    -1.3800    85.0050 ca         1 7RQ      -0.024000
     13 C04          0.4650    -0.7370    85.8980 ca         1 7RQ      -0.147600
     14 C05          0.5730    -1.2260    87.2150 ca         1 7RQ      -0.023000
     15 C06         -0.2300    -2.2940    87.6500 ca         1 7RQ      -0.105000
     16 C07          1.3020     0.4560    85.4910 c          1 7RQ       0.617700
     17 C11         -7.0920    -2.7380    88.5360 ca         1 7RQ      -0.033000
     18 C12         -7.5510    -3.7150    89.4620 ca         1 7RQ      -0.021000
     19 C14         -9.0550    -2.0510    90.4320 ca         1 7RQ       0.134000
     20 C18        -10.4730    -2.5860    92.2750 ca         1 7RQ       0.174000
     21 C23        -11.4420    -2.1830    93.2040 ca         1 7RQ      -0.186000
     22 C25        -13.0250    -1.2790    95.5520 c3         1 7RQ       0.209600
     23 C27         -6.1300    -3.1070    87.5650 ca         1 7RQ      -0.080000
     24 C29         -6.0590    -5.3690    88.4380 ca         1 7RQ      -0.102000
     25 C30         -7.0140    -5.0250    89.4060 ca         1 7RQ      -0.106000
     26 C31         -5.8700     0.2690    87.9320 c3         1 7RQ       0.171800
     27 C32         -5.2210     0.6640    86.5910 c3         1 7RQ      -0.081400
     28 C33         -3.8120     1.2700    86.7810 c3         1 7RQ      -0.073400
     29 C34         -3.0140     1.4060    85.4670 c3         1 7RQ      -0.074400
     30 C35         -1.5450     1.8220    85.7050 c3         1 7RQ      -0.101400
     31 C36         -0.6700     1.7100    84.4320 c3         1 7RQ       0.103000
     32 C39         -2.5550    -4.0990    88.6510 ce         1 7RQ      -0.480400
     33 C41         -3.0670    -2.8380    89.2560 c          1 7RQ       0.620300
     34 C42         -3.7590    -2.9460    90.6170 c6         1 7RQ      -0.181400
     35 C43         -3.0590    -3.9660    91.5350 c6         1 7RQ      -0.065400
     36 C44         -2.9970    -5.3370    90.8320 c6         1 7RQ      -0.074200
     37 C45         -2.5150    -5.2300    89.3920 c2         1 7RQ       0.291900
     38 N09         -7.1630    -0.3980    87.7320 nu         1 7RQ      -0.899200
     39 N16         -9.0060    -4.3020    91.3560 na         1 7RQ      -0.175000
     40 N24        -12.9100    -2.6880    95.1070 nh         1 7RQ      -0.815400
     41 N37          0.7560     1.4530    84.7010 ns         1 7RQ      -0.501900
     42 N48         -2.2280    -3.0190    84.4810 no         1 7RQ       0.702200
     43 O08          2.4730     0.5450    85.8270 o          1 7RQ      -0.592100
     44 O19        -10.0130    -1.6850    91.3480 os         1 7RQ      -0.316000
     45 O40         -2.0260    -5.1070    86.6130 o          1 7RQ      -0.581100
     46 O46         -2.0650    -6.3970    88.9190 oh         1 7RQ      -0.525100
     47 O47         -2.9740    -1.7560    88.7030 o          1 7RQ      -0.552100
     48 O49         -3.4080    -3.0820    84.8470 o          1 7RQ      -0.397500
     49 O50         -1.8640    -3.1720    83.3080 o          1 7RQ      -0.397500
     50 H1          -9.0040    -0.0860    89.5600 ha         1 7RQ       0.127000
     51 H2         -10.0760    -5.8340    93.2600 ha         1 7RQ       0.114000
     52 H3         -11.7740    -5.1250    94.9020 ha         1 7RQ       0.117000
     53 H4         -13.4150    -4.1660    96.5580 h1         1 7RQ       0.036033
     54 H5         -14.7820    -3.1520    96.0250 h1         1 7RQ       0.036033
     55 H6         -14.1540    -4.4140    94.9510 h1         1 7RQ       0.036033
     56 H7          -4.8960    -4.6850    86.7530 ha         1 7RQ       0.113000
     57 H8          -0.4640    -1.0610    83.9670 ha         1 7RQ       0.156000
     58 H9           1.2660    -0.7610    87.9130 ha         1 7RQ       0.139000
     59 H10         -0.1260    -2.6490    88.6730 ha         1 7RQ       0.132000
     60 H11        -11.8160    -1.1670    93.1640 ha         1 7RQ       0.130000
     61 H12        -12.0320    -0.8120    95.6160 h1         1 7RQ       0.036033
     62 H13        -13.6420    -0.7020    94.8500 h1         1 7RQ       0.036033
     63 H14        -13.4830    -1.2200    96.5490 h1         1 7RQ       0.036033
     64 H15         -5.7760    -2.3870    86.8330 ha         1 7RQ       0.128000
     65 H16         -5.6610    -6.3810    88.4010 ha         1 7RQ       0.112000
     66 H17         -7.3320    -5.7980    90.1010 ha         1 7RQ       0.113000
     67 H18         -5.1890    -0.4140    88.4560 h1         1 7RQ       0.037700
     68 H19         -5.9960     1.1580    88.5660 h1         1 7RQ       0.037700
     69 H20         -5.8610     1.3790    86.0620 hc         1 7RQ       0.048200
     70 H21         -5.1430    -0.2300    85.9600 hc         1 7RQ       0.048200
     71 H22         -3.2450     0.6300    87.4670 hc         1 7RQ       0.039700
     72 H23         -3.8980     2.2520    87.2640 hc         1 7RQ       0.039700
     73 H24         -3.5040     2.1310    84.8050 hc         1 7RQ       0.044200
     74 H25         -3.0270     0.4380    84.9500 hc         1 7RQ       0.044200
     75 H26         -1.1390     1.1930    86.5030 hc         1 7RQ       0.047200
     76 H27         -1.5040     2.8510    86.0840 hc         1 7RQ       0.047200
     77 H28         -0.7510     2.6500    83.8710 h1         1 7RQ       0.055700
     78 H29         -1.0580     0.9280    83.7710 h1         1 7RQ       0.055700
     79 H31         -4.7650    -3.3370    90.4210 hc         1 7RQ       0.075700
     80 H32         -3.8650    -1.9530    91.0710 hc         1 7RQ       0.075700
     81 H33         -3.5910    -4.0520    92.4930 hc         1 7RQ       0.055700
     82 H34         -2.0420    -3.6180    91.7660 hc         1 7RQ       0.055700
     83 H35         -3.9940    -5.7980    90.8330 hc         1 7RQ       0.083200
     84 H36         -2.3440    -6.0130    91.4000 hc         1 7RQ       0.083200
     85 H38         -7.9080     0.2430    87.4580 hn         1 7RQ       0.427000
     86 H39         -8.6540    -5.2510    91.3590 hn         1 7RQ       0.308000
     87 H40          1.4120     2.1760    84.4310 hn         1 7RQ       0.315500
     88 H41         -1.9310    -6.2410    87.9500 ho         1 7RQ       0.545000
     89 C38         -1.9910    -4.0730    87.2720 c          1 7RQ       0.648900
@<TRIPOS>BOND
     1     1     3 ar  
     2     1    17 ar  
     3     1    38 1   
     4     2    18 ar  
     5     2    19 ar  
     6     2    39 1   
     7     3    19 ar  
     8     3    50 1   
     9     4     5 ar  
    10     4    20 ar  
    11     4    39 1   
    12     5     6 ar  
    13     5    51 1   
    14     6     7 ar  
    15     6    52 1   
    16     7    21 ar  
    17     7    40 1   
    18     8    40 1   
    19     8    53 1   
    20     8    54 1   
    21     8    55 1   
    22     9    23 ar  
    23     9    24 ar  
    24     9    56 1   
    25    10    11 ar  
    26    10    15 ar  
    27    10    89 1   
    28    11    12 ar  
    29    11    42 1   
    30    12    13 ar  
    31    12    57 1   
    32    13    14 ar  
    33    13    16 1   
    34    14    15 ar  
    35    14    58 1   
    36    15    59 1   
    37    16    41 1   
    38    16    43 2   
    39    17    18 ar  
    40    17    23 ar  
    41    18    25 ar  
    42    19    44 1   
    43    20    21 ar  
    44    20    44 1   
    45    21    60 1   
    46    22    40 1   
    47    22    61 1   
    48    22    62 1   
    49    22    63 1   
    50    23    64 1   
    51    24    25 ar  
    52    24    65 1   
    53    25    66 1   
    54    26    27 1   
    55    26    38 1   
    56    26    67 1   
    57    26    68 1   
    58    27    28 1   
    59    27    69 1   
    60    27    70 1   
    61    28    29 1   
    62    28    71 1   
    63    28    72 1   
    64    29    30 1   
    65    29    73 1   
    66    29    74 1   
    67    30    31 1   
    68    30    75 1   
    69    30    76 1   
    70    31    41 1   
    71    31    77 1   
    72    31    78 1   
    73    32    33 1   
    74    32    37 2   
    75    32    89 1   
    76    33    34 1   
    77    33    47 2   
    78    34    35 1   
    79    34    79 1   
    80    34    80 1   
    81    35    36 1   
    82    35    81 1   
    83    35    82 1   
    84    36    37 1   
    85    36    83 1   
    86    36    84 1   
    87    37    46 1   
    88    38    85 1   
    89    39    86 1   
    90    41    87 1   
    91    42    48 1   
    92    42    49 1   
    93    45    89 2   
    94    46    88 1   
@<TRIPOS>SUBSTRUCTURE
     1 7RQ         1 TEMP              0 ****  ****    0 ROOT
