@<TRIPOS>MOLECULE
7RQ
   89    94     1     0     0
SMALL
bcc


@<TRIPOS>ATOM
      1 C10         -8.9310    -2.2180    90.3700 ca         1 7RQ       0.112600
      2 C13        -10.5240    -2.8730    92.6240 ca         1 7RQ      -0.095600
      3 C15        -10.1470    -1.6180    90.5850 ca         1 7RQ      -0.229300
      4 C17        -12.5050    -2.4330    93.8780 ca         1 7RQ      -0.147600
      5 C20        -13.3390    -2.5920    94.9720 ca         1 7RQ      -0.096000
      6 C21        -14.5120    -1.8650    95.1110 ca         1 7RQ      -0.204000
      7 C22        -14.9040    -0.9360    94.1350 ca         1 7RQ       0.195600
      8 C26        -17.0230    -0.5850    95.2620 c3         1 7RQ       0.209600
      9 C28         -6.8910    -4.9250    91.9310 ca         1 7RQ      -0.138000
     10 C01          2.0830    -2.1940    85.0680 ca         1 7RQ      -0.033600
     11 C02          1.1940    -1.4110    84.3460 ca         1 7RQ      -0.144200
     12 C03          0.6970    -0.2160    84.8390 ca         1 7RQ      -0.042000
     13 C04          1.1030     0.2230    86.0900 ca         1 7RQ      -0.147600
     14 C05          2.0240    -0.5300    86.8100 ca         1 7RQ      -0.041000
     15 C06          2.5020    -1.7290    86.3070 ca         1 7RQ      -0.123000
     16 C07          0.6590     1.5440    86.6420 c          1 7RQ       0.684700
     17 C11         -8.4920    -3.2250    91.2770 ca         1 7RQ      -0.033000
     18 C12         -9.2890    -3.5420    92.4130 ca         1 7RQ      -0.021000
     19 C14        -10.9400    -1.9570    91.6910 ca         1 7RQ       0.309000
     20 C18        -12.8940    -1.5150    92.9090 ca         1 7RQ       0.349000
     21 C23        -14.0630    -0.7870    93.0180 ca         1 7RQ      -0.269300
     22 C25        -16.5200     0.5840    93.1400 c3         1 7RQ       0.209600
     23 C27         -7.3010    -3.9550    91.0570 ca         1 7RQ      -0.098000
     24 C29         -7.6670    -5.2220    93.0660 ca         1 7RQ      -0.120000
     25 C30         -8.8390    -4.5550    93.2950 ca         1 7RQ      -0.124000
     26 C31         -6.9660    -1.0480    89.5460 c3         1 7RQ       0.171800
     27 C32         -6.0560    -0.9560    88.3350 c3         1 7RQ      -0.081400
     28 C33         -4.8420    -0.0730    88.5890 c3         1 7RQ      -0.073400
     29 C34         -3.9150     0.0130    87.3840 c3         1 7RQ      -0.074400
     30 C35         -2.7000     0.8960    87.6320 c3         1 7RQ      -0.101400
     31 C36         -1.7810     0.9350    86.4190 c3         1 7RQ       0.103000
     32 C39          2.2430    -4.7460    84.9290 ce         1 7RQ      -0.480400
     33 C41          0.9190    -4.9090    85.5310 c          1 7RQ       0.620300
     34 C42          0.4910    -6.3110    85.8880 c6         1 7RQ      -0.181400
     35 C43          1.6640    -7.2200    86.2120 c6         1 7RQ      -0.065400
     36 C44          2.6540    -7.2300    85.0600 c6         1 7RQ      -0.074200
     37 C45          3.0360    -5.8510    84.6540 c2         1 7RQ       0.291900
     38 N09         -8.1310    -1.8870    89.2630 nu         1 7RQ      -0.705600
     39 N16        -11.3290    -3.1830    93.7210 na         1 7RQ      -0.226100
     40 N24        -16.0560    -0.1930    94.2640 nh         1 7RQ      -0.677000
     41 N37         -0.6530     1.8250    86.6220 ns         1 7RQ      -0.568900
     42 N48          0.7270    -1.8770    83.0540 no         1 7RQ       0.322200
     43 O08          1.4980     2.3240    87.0690 o          1 7RQ      -0.592100
     44 O19        -12.1390    -1.3060    91.7880 os         1 7RQ      -0.404800
     45 O40          3.7960    -3.2890    83.9390 o          1 7RQ      -0.581100
     46 O46          4.1650    -5.7540    84.0210 oh         1 7RQ      -0.486100
     47 O47          0.1730    -3.9620    85.7000 o          1 7RQ      -0.552100
     48 O49          1.0570    -2.9890    82.7120 o          1 7RQ      -0.207500
     49 O50          0.0340    -1.1440    82.3920 o          1 7RQ      -0.207500
     50 H1         -10.5050    -0.8520    89.9070 ha         1 7RQ       0.145000
     51 H2         -13.0690    -3.3060    95.7410 ha         1 7RQ       0.132000
     52 H3         -15.1160    -2.0390    95.9900 ha         1 7RQ       0.135000
     53 H4         -16.6060    -0.5250    96.2690 h1         1 7RQ       0.036033
     54 H5         -17.8710     0.0960    95.2290 h1         1 7RQ       0.036033
     55 H6         -17.4020    -1.6030    95.1160 h1         1 7RQ       0.036033
     56 H7          -5.9790    -5.4750    91.7410 ha         1 7RQ       0.131000
     57 H8           0.0010     0.3670    84.2520 ha         1 7RQ       0.174000
     58 H9           2.3650    -0.1890    87.7780 ha         1 7RQ       0.157000
     59 H10          3.2030    -2.3120    86.8890 ha         1 7RQ       0.150000
     60 H11        -14.3030    -0.1010    92.2180 ha         1 7RQ       0.148000
     61 H12        -15.7790     1.3260    92.8370 h1         1 7RQ       0.036033
     62 H13        -16.7620    -0.0260    92.2610 h1         1 7RQ       0.036033
     63 H14        -17.4160     1.1270    93.4270 h1         1 7RQ       0.036033
     64 H15         -6.7190    -3.7540    90.1690 ha         1 7RQ       0.146000
     65 H16         -7.3460    -5.9960    93.7510 ha         1 7RQ       0.130000
     66 H17         -9.4340    -4.8330    94.1550 ha         1 7RQ       0.131000
     67 H18         -6.4130    -1.4800    90.3820 h1         1 7RQ       0.037700
     68 H19         -7.2670    -0.0390    89.8640 h1         1 7RQ       0.037700
     69 H20         -6.6200    -0.5630    87.4810 hc         1 7RQ       0.048200
     70 H21         -5.7310    -1.9630    88.0560 hc         1 7RQ       0.048200
     71 H22         -4.2840    -0.4600    89.4480 hc         1 7RQ       0.039700
     72 H23         -5.1720     0.9330    88.8670 hc         1 7RQ       0.039700
     73 H24         -4.4720     0.3950    86.5230 hc         1 7RQ       0.044200
     74 H25         -3.5820    -0.9940    87.1110 hc         1 7RQ       0.044200
     75 H26         -2.1390     0.5280    88.4960 hc         1 7RQ       0.047200
     76 H27         -3.0290     1.9110    87.8790 hc         1 7RQ       0.047200
     77 H28         -2.3420     1.2550    85.5370 h1         1 7RQ       0.055700
     78 H29         -1.4180    -0.0710    86.2150 h1         1 7RQ       0.055700
     79 H31         -0.0560    -6.7100    85.0260 hc         1 7RQ       0.075700
     80 H32         -0.2200    -6.2590    86.7130 hc         1 7RQ       0.075700
     81 H33          1.3140    -8.2330    86.4050 hc         1 7RQ       0.055700
     82 H34          2.1630    -6.8770    87.1220 hc         1 7RQ       0.055700
     83 H35          2.2130    -7.7220    84.1840 hc         1 7RQ       0.083200
     84 H36          3.5580    -7.7900    85.3060 hc         1 7RQ       0.083200
     85 H38         -8.6940    -1.4400    88.5500 hn         1 7RQ       0.371800
     86 H39        -10.8340    -3.3470    94.5850 hn         1 7RQ       0.257700
     87 H40         -0.8860     2.7500    86.9590 hn         1 7RQ       0.315500
     88 H41          4.3030    -4.7870    83.7900 ho         1 7RQ       0.506000
     89 C38          2.7400    -3.4420    84.5550 c          1 7RQ       0.648900
@<TRIPOS>BOND
     1     1     3 ar  
     2     1    17 ar  
     3     1    38 1   
     4     2    18 ar  
     5     2    19 ar  
     6     2    39 1   
     7     3    19 ar  
     8     3    50 1   
     9     4     5 ar  
    10     4    20 ar  
    11     4    39 1   
    12     5     6 ar  
    13     5    51 1   
    14     6     7 ar  
    15     6    52 1   
    16     7    21 ar  
    17     7    40 1   
    18     8    40 1   
    19     8    53 1   
    20     8    54 1   
    21     8    55 1   
    22     9    23 ar  
    23     9    24 ar  
    24     9    56 1   
    25    10    11 ar  
    26    10    15 ar  
    27    10    89 1   
    28    11    12 ar  
    29    11    42 1   
    30    12    13 ar  
    31    12    57 1   
    32    13    14 ar  
    33    13    16 1   
    34    14    15 ar  
    35    14    58 1   
    36    15    59 1   
    37    16    41 1   
    38    16    43 2   
    39    17    18 ar  
    40    17    23 ar  
    41    18    25 ar  
    42    19    44 1   
    43    20    21 ar  
    44    20    44 1   
    45    21    60 1   
    46    22    40 1   
    47    22    61 1   
    48    22    62 1   
    49    22    63 1   
    50    23    64 1   
    51    24    25 ar  
    52    24    65 1   
    53    25    66 1   
    54    26    27 1   
    55    26    38 1   
    56    26    67 1   
    57    26    68 1   
    58    27    28 1   
    59    27    69 1   
    60    27    70 1   
    61    28    29 1   
    62    28    71 1   
    63    28    72 1   
    64    29    30 1   
    65    29    73 1   
    66    29    74 1   
    67    30    31 1   
    68    30    75 1   
    69    30    76 1   
    70    31    41 1   
    71    31    77 1   
    72    31    78 1   
    73    32    33 1   
    74    32    37 2   
    75    32    89 1   
    76    33    34 1   
    77    33    47 2   
    78    34    35 1   
    79    34    79 1   
    80    34    80 1   
    81    35    36 1   
    82    35    81 1   
    83    35    82 1   
    84    36    37 1   
    85    36    83 1   
    86    36    84 1   
    87    37    46 1   
    88    38    85 1   
    89    39    86 1   
    90    41    87 1   
    91    42    48 1   
    92    42    49 1   
    93    45    89 2   
    94    46    88 1   
@<TRIPOS>SUBSTRUCTURE
     1 7RQ         1 TEMP              0 ****  ****    0 ROOT
