@<TRIPOS>MOLECULE
7RR
   33    35     1     0     0
SMALL
No Charge or Current Charge


@<TRIPOS>ATOM
      1 C10        -10.9620     1.1560    14.3260 cc         1 7RR      -0.192000
      2 C12        -11.4070    -0.9920    15.6400 c3         1 7RR      -0.003400
      3 C13        -12.7830    -1.0330    16.3020 c          1 7RR       0.593100
      4 N14        -13.6600    -1.9510    15.7420 ns         1 7RR      -0.149000
      5 C15        -15.0100    -2.2860    16.0390 ca         1 7RR       0.033000
      6 C16        -15.8160    -1.5610    16.9420 ca         1 7RR      -0.190000
      7 C17        -17.1420    -1.9630    17.1690 ca         1 7RR       0.361900
      8 C19        -16.9370    -3.7260    15.6850 ca         1 7RR       0.374900
      9 C20        -15.5980    -3.3940    15.3960 ca         1 7RR      -0.009000
     10 C02        -12.0600     0.2380    10.8940 c          1 7RR       0.624600
     11 C04        -12.6520    -1.9660    11.6610 cc         1 7RR       0.735800
     12 C07        -11.8300    -0.5830    13.1530 cc         1 7RR       0.178400
     13 C08        -11.6700     0.4440    12.2990 cd         1 7RR      -0.299600
     14 C09        -11.1300     1.5360    13.0120 cd         1 7RR      -0.082000
     15 N03        -12.5480    -1.0250    10.6830 ns         1 7RR      -0.456400
     16 N05        -13.1500    -3.1390    11.3240 nv         1 7RR      -1.043200
     17 N06        -12.3040    -1.7860    12.9110 nd         1 7RR      -0.723100
     18 N11        -11.4010    -0.1760    14.4160 na         1 7RR       0.025000
     19 N18        -17.7050    -3.0280    16.5560 nb         1 7RR      -0.674000
     20 O01        -11.9680     1.0740    10.0090 o          1 7RR      -0.541000
     21 O22        -13.0590    -0.3120    17.2540 o          1 7RR      -0.535100
     22 Cl21       -14.6780    -4.3730    14.2460 cl         1 7RR      -0.196000
     23 H101       -10.5790     1.7060    15.1770 h4         1 7RR       0.149000
     24 H122       -11.0990    -2.0150    15.3980 h1         1 7RR       0.084200
     25 H121       -10.6910    -0.5750    16.3580 h1         1 7RR       0.084200
     26 H141       -13.2760    -2.4630    14.9570 hn         1 7RR       0.165000
     27 H161       -15.4500    -0.6870    17.4700 ha         1 7RR       0.160000
     28 H171       -17.7770    -1.4120    17.8620 h4         1 7RR       0.026100
     29 H191       -17.4100    -4.5800    15.2020 h4         1 7RR       0.033100
     30 H091       -10.8880     2.5120    12.5980 ha         1 7RR       0.148000
     31 H031       -12.8200    -1.2560     9.7430 hn         1 7RR       0.321500
     32 H051       -13.4010    -3.7040    12.1260 hn         1 7RR       0.496500
     33 H052       -13.8190    -3.1510    10.5650 hn         1 7RR       0.496500
@<TRIPOS>BOND
     1     1    14 2   
     2     1    18 1   
     3     1    23 1   
     4     2     3 1   
     5     2    18 1   
     6     2    24 1   
     7     2    25 1   
     8     3     4 1   
     9     3    21 2   
    10     4     5 1   
    11     4    26 1   
    12     5     6 ar  
    13     5     9 ar  
    14     6     7 ar  
    15     6    27 1   
    16     7    19 ar  
    17     7    28 1   
    18     8     9 ar  
    19     8    19 ar  
    20     8    29 1   
    21     9    22 1   
    22    10    13 1   
    23    10    15 1   
    24    10    20 2   
    25    11    15 1   
    26    11    16 1   
    27    11    17 2   
    28    12    13 2   
    29    12    17 1   
    30    12    18 1   
    31    13    14 1   
    32    14    30 1   
    33    15    31 1   
    34    16    32 1   
    35    16    33 1   
@<TRIPOS>SUBSTRUCTURE
     1 7RR         1 TEMP              0 ****  ****    0 ROOT
