@<TRIPOS>MOLECULE
7RR
   33    35     1     0     0
SMALL
bcc


@<TRIPOS>ATOM
      1 C10        -10.9060     0.6820    14.4520 cc         1 7RR      -0.159300
      2 C12        -11.9090    -1.5620    14.9510 c3         1 7RR      -0.032700
      3 C13        -13.3680    -1.4250    15.3720 c          1 7RR       0.660100
      4 N14        -13.8290    -2.5250    16.0380 ns         1 7RR      -0.475100
      5 C15        -15.0720    -2.7240    16.6050 ca         1 7RR       0.125600
      6 C16        -16.0870    -1.7660    16.6520 ca         1 7RR      -0.273300
      7 C17        -17.2870    -2.0850    17.2620 ca         1 7RR       0.427200
      8 C19        -16.6050    -4.1760    17.7790 ca         1 7RR       0.440200
      9 C20        -15.3710    -3.9610    17.1920 ca         1 7RR      -0.165900
     10 C02        -11.5830     1.0710    10.8940 c          1 7RR       0.767100
     11 C04        -12.6270    -1.1570    10.8190 cc         1 7RR       0.735800
     12 C07        -11.8210    -0.4390    12.7600 cc         1 7RR       0.229100
     13 C08        -11.3760     0.7840    12.2730 cd         1 7RR      -0.299600
     14 C09        -10.7930     1.4920    13.3660 cd         1 7RR      -0.100000
     15 N03        -12.2250     0.0120    10.2390 ns         1 7RR      -0.523400
     16 N05        -13.1980    -2.0730    10.0150 nv         1 7RR      -0.932800
     17 N06        -12.4480    -1.4190    12.0850 nd         1 7RR      -0.723100
     18 N11        -11.5170    -0.5020    14.0770 na         1 7RR      -0.047100
     19 N18        -17.5580    -3.2580    17.8190 nb         1 7RR      -0.674000
     20 O01        -11.2790     2.0790    10.2750 o          1 7RR      -0.616500
     21 O22        -14.0180    -0.4340    15.1380 o          1 7RR      -0.535100
     22 CL21       -14.2120    -5.2440    17.2000 cl         1 7RR      -0.104400
     23 H101       -10.5940     0.8310    15.4730 h4         1 7RR       0.167000
     24 H122       -11.7460    -2.5270    14.4670 h1         1 7RR       0.084200
     25 H121       -11.2790    -1.5440    15.8430 h1         1 7RR       0.084200
     26 H141       -13.1760    -3.2920    16.1340 hn         1 7RR       0.331500
     27 H161       -15.9550    -0.7860    16.2270 ha         1 7RR       0.178000
     28 H171       -18.0720    -1.3380    17.2980 h4         1 7RR       0.026100
     29 H191       -16.8180    -5.1380    18.2310 h4         1 7RR       0.033100
     30 H091       -10.3460     2.4730    13.3480 ha         1 7RR       0.166000
     31 H031       -12.3920     0.1450     9.2500 hn         1 7RR       0.321500
     32 H051       -13.6450    -2.8560    10.4630 hn         1 7RR       0.441300
     33 H052       -13.5680    -1.8110     9.1170 hn         1 7RR       0.441300
@<TRIPOS>BOND
     1     1    14 2   
     2     1    18 1   
     3     1    23 1   
     4     2     3 1   
     5     2    18 1   
     6     2    24 1   
     7     2    25 1   
     8     3     4 1   
     9     3    21 2   
    10     4     5 1   
    11     4    26 1   
    12     5     6 ar  
    13     5     9 ar  
    14     6     7 ar  
    15     6    27 1   
    16     7    19 ar  
    17     7    28 1   
    18     8     9 ar  
    19     8    19 ar  
    20     8    29 1   
    21     9    22 1   
    22    10    13 1   
    23    10    15 1   
    24    10    20 2   
    25    11    15 1   
    26    11    16 1   
    27    11    17 2   
    28    12    13 2   
    29    12    17 1   
    30    12    18 1   
    31    13    14 1   
    32    14    30 1   
    33    15    31 1   
    34    16    32 1   
    35    16    33 1   
@<TRIPOS>SUBSTRUCTURE
     1 7RR         1 TEMP              0 ****  ****    0 ROOT
