@<TRIPOS>MOLECULE
7RS
   51    53     1     0     0
SMALL
abcg2


@<TRIPOS>ATOM
      1 C10          6.1430     1.9470    -1.1300 c6         1 7RS       0.123300
      2 N12          6.2590     3.5380     0.7760 n7         1 7RS      -0.841400
      3 C13          5.2840     2.7030     1.4580 c6         1 7RS       0.146800
      4 C20         -4.3710     0.1820     0.0480 ca         1 7RS       0.338000
      5 C21         -5.1020    -0.8590    -0.5380 ca         1 7RS      -0.220000
      6 C22         -6.4620    -0.7140    -0.7320 ca         1 7RS       0.180000
      7 C24         -6.4160     1.4760     0.2040 ca         1 7RS      -0.078000
      8 C02          2.0660    -2.7280     0.6820 ca         1 7RS      -0.093300
      9 C03          1.4500    -1.7330    -0.0810 ca         1 7RS      -0.047000
     10 C04          2.2070    -0.7530    -0.7170 ca         1 7RS      -0.099000
     11 C05          3.5880    -0.7300    -0.6000 ca         1 7RS      -0.073300
     12 C06          4.2080    -1.7130     0.1660 ca         1 7RS      -0.088000
     13 C07          3.4550    -2.6970     0.7830 ca         1 7RS      -0.101000
     14 N09          5.2170     1.1030    -0.3940 n3         1 7RS      -0.709600
     15 C11          7.0190     2.7470    -0.1770 c6         1 7RS       0.146800
     16 C14          4.4040     1.8950     0.5130 c6         1 7RS       0.123300
     17 C16         -0.7610    -0.6840    -0.0000 c          1 7RS       0.597100
     18 O17         -0.3670     0.4120     0.3530 o          1 7RS      -0.584100
     19 C18         -2.2290    -0.9650    -0.2710 c3         1 7RS       0.129800
     20 N19         -3.0310     0.0750     0.3000 nu         1 7RS      -0.947200
     21 C23         -7.1280     0.4380    -0.3680 ca         1 7RS       0.075000
     22 C25         -5.0550     1.3530     0.4100 ca         1 7RS      -0.177000
     23 F26         -8.4520     0.5410    -0.5730 f          1 7RS      -0.166000
     24 F27         -7.1520    -1.7160    -1.2910 f          1 7RS      -0.165000
     25 H1           6.7690     1.3150    -1.7660 h1         1 7RS       0.037450
     26 H2           5.6080     2.6450    -1.8000 h1         1 7RS       0.037450
     27 H3           5.7690     4.2720     0.2760 hn         1 7RS       0.399000
     28 H5           5.8230     2.0150     2.1170 h1         1 7RS       0.059200
     29 H6           4.6560     3.3280     2.0940 h1         1 7RS       0.059200
     30 H7          -4.6340    -1.7850    -0.8450 ha         1 7RS       0.129000
     31 H8          -6.9300     2.3840     0.4910 ha         1 7RS       0.133000
     32 H9           0.7350    -4.4330     0.6680 hc         1 7RS       0.043033
     33 H10          1.9010    -4.4280     1.9780 hc         1 7RS       0.043033
     34 H11          0.5060    -3.3520     2.0320 hc         1 7RS       0.043033
     35 H12          1.7140    -0.0030    -1.3210 ha         1 7RS       0.125000
     36 H13          5.2860    -1.7100     0.2770 ha         1 7RS       0.129000
     37 H14          3.9540    -3.4610     1.3680 ha         1 7RS       0.115000
     38 H15          5.0740    -0.1660    -2.0180 h1         1 7RS       0.038700
     39 H16          3.7290     0.9630    -1.9010 h1         1 7RS       0.038700
     40 H18          7.6620     2.0590     0.3820 h1         1 7RS       0.059200
     41 H19          7.6760     3.4040    -0.7500 h1         1 7RS       0.059200
     42 H20          3.7630     1.2300     1.0960 h1         1 7RS       0.037450
     43 H21          3.7360     2.5800    -0.0420 h1         1 7RS       0.037450
     44 H22         -0.3930    -2.6330    -0.4140 hn         1 7RS       0.156000
     45 H23         -2.3530    -1.0470    -1.3610 h1         1 7RS       0.056200
     46 H24         -2.4970    -1.9420     0.1440 h1         1 7RS       0.056200
     47 H25         -2.5400     0.9380     0.4760 hn         1 7RS       0.505000
     48 H26         -4.5120     2.1740     0.8610 ha         1 7RS       0.124000
     49 C08          4.4020     0.3220    -1.3050 c3         1 7RS       0.211100
     50 N15          0.0450    -1.7460    -0.2150 ns         1 7RS      -0.157000
     51 C01          1.2610    -3.7870     1.3750 c3         1 7RS      -0.047800
@<TRIPOS>BOND
     1     1    14 1   
     2     1    15 1   
     3     1    25 1   
     4     1    26 1   
     5     2     3 1   
     6     2    15 1   
     7     2    27 1   
     8     3    16 1   
     9     3    28 1   
    10     3    29 1   
    11     4     5 ar  
    12     4    20 1   
    13     4    22 ar  
    14     5     6 ar  
    15     5    30 1   
    16     6    21 ar  
    17     6    24 1   
    18     7    21 ar  
    19     7    22 ar  
    20     7    31 1   
    21     8     9 ar  
    22     8    13 ar  
    23     8    51 1   
    24     9    10 ar  
    25     9    50 1   
    26    10    11 ar  
    27    10    35 1   
    28    11    12 ar  
    29    11    49 1   
    30    12    13 ar  
    31    12    36 1   
    32    13    37 1   
    33    14    16 1   
    34    14    49 1   
    35    15    40 1   
    36    15    41 1   
    37    16    42 1   
    38    16    43 1   
    39    17    18 2   
    40    17    19 1   
    41    17    50 1   
    42    19    20 1   
    43    19    45 1   
    44    19    46 1   
    45    20    47 1   
    46    21    23 1   
    47    22    48 1   
    48    32    51 1   
    49    33    51 1   
    50    34    51 1   
    51    38    49 1   
    52    39    49 1   
    53    44    50 1   
@<TRIPOS>SUBSTRUCTURE
     1 7RS         1 TEMP              0 ****  ****    0 ROOT
