@<TRIPOS>MOLECULE
7RS
   51    53     1     0     0
SMALL
No Charge or Current Charge


@<TRIPOS>ATOM
      1 C10          6.3640     2.0530    -0.9750 c6         1 7RS       0.123300
      2 N12          6.4340     3.4950     1.1110 n7         1 7RS      -0.841400
      3 C13          5.4660     2.5560     1.7490 c6         1 7RS       0.146800
      4 C20         -4.6670     0.2570    -0.2430 ca         1 7RS       0.338000
      5 C21         -5.3390    -0.9320     0.0810 ca         1 7RS      -0.220000
      6 C22         -6.7410    -0.9480     0.1530 ca         1 7RS       0.180000
      7 C24         -6.8100     1.4150    -0.4250 ca         1 7RS      -0.078000
      8 C02          2.1100    -2.7590     0.4070 ca         1 7RS      -0.093300
      9 C03          1.4980    -1.5870    -0.1000 ca         1 7RS      -0.047000
     10 C04          2.3090    -0.5780    -0.6680 ca         1 7RS      -0.099000
     11 C05          3.7090    -0.7210    -0.7210 ca         1 7RS      -0.073300
     12 C06          4.3050    -1.8830    -0.2060 ca         1 7RS      -0.088000
     13 C07          3.5110    -2.8960     0.3520 ca         1 7RS      -0.101000
     14 N09          5.3970     1.1080    -0.3380 n3         1 7RS      -0.709600
     15 C11          7.2510     2.7940     0.0780 c6         1 7RS       0.146800
     16 C14          4.5790     1.8130     0.6980 c6         1 7RS       0.123300
     17 C16         -0.8000    -0.4240    -0.2600 c          1 7RS       0.597100
     18 O17         -0.4480     0.7170    -0.5560 o          1 7RS      -0.584100
     19 C18         -2.3050    -0.8170    -0.0900 c3         1 7RS       0.129800
     20 N19         -3.2770     0.3030    -0.3220 nu         1 7RS      -0.947200
     21 C23         -7.4790     0.2240    -0.1000 ca         1 7RS       0.075000
     22 C25         -5.4030     1.4270    -0.4950 ca         1 7RS      -0.177000
     23 F26         -8.8300     0.2130    -0.0320 f          1 7RS      -0.166000
     24 F27         -7.3770    -2.0990     0.4660 f          1 7RS      -0.165000
     25 H1           7.0230     1.5120    -1.6690 h1         1 7RS       0.037450
     26 H2           5.8210     2.8040    -1.5690 h1         1 7RS       0.037450
     27 H3           5.8910     4.2260     0.6350 hn         1 7RS       0.399000
     28 H5           6.0190     1.8070     2.3360 h1         1 7RS       0.059200
     29 H6           4.8190     3.1050     2.4490 h1         1 7RS       0.059200
     30 H7          -4.7880    -1.8460     0.2790 ha         1 7RS       0.129000
     31 H8          -7.3770     2.3220    -0.6210 ha         1 7RS       0.133000
     32 H9           0.5820    -4.3050     0.2890 hc         1 7RS       0.043033
     33 H10          1.9060    -4.7020     1.3880 hc         1 7RS       0.043033
     34 H11          0.6910    -3.5170     1.8750 hc         1 7RS       0.043033
     35 H12          1.8720     0.3240    -1.0820 ha         1 7RS       0.125000
     36 H13          5.3860    -2.0000    -0.2390 ha         1 7RS       0.129000
     37 H14          3.9890    -3.7900     0.7440 ha         1 7RS       0.115000
     38 H15          5.2360    -0.0960    -2.0770 h1         1 7RS       0.038700
     39 H16          3.9380     1.0800    -1.8830 h1         1 7RS       0.038700
     40 H18          7.9050     2.0580     0.5690 h1         1 7RS       0.059200
     41 H19          7.9010     3.5160    -0.4370 h1         1 7RS       0.059200
     42 H20          3.9370     1.0990     1.2340 h1         1 7RS       0.037450
     43 H21          3.9120     2.5450     0.2190 h1         1 7RS       0.037450
     44 H22         -0.3810    -2.3430     0.2300 hn         1 7RS       0.156000
     45 H23         -2.5050    -1.6400    -0.7900 h1         1 7RS       0.056200
     46 H24         -2.4230    -1.2140     0.9270 h1         1 7RS       0.056200
     47 H25         -2.8710     1.2130    -0.5650 hn         1 7RS       0.505000
     48 H26         -4.8880     2.3500    -0.7470 ha         1 7RS       0.124000
     49 C08          4.5780     0.3750    -1.3350 c3         1 7RS       0.211100
     50 N15          0.0770    -1.4800    -0.0320 ns         1 7RS      -0.157000
     51 C01          1.2770    -3.8810     1.0230 c3         1 7RS      -0.047800
@<TRIPOS>BOND
     1     1    14 1   
     2     1    15 1   
     3     1    25 1   
     4     1    26 1   
     5     2     3 1   
     6     2    15 1   
     7     2    27 1   
     8     3    16 1   
     9     3    28 1   
    10     3    29 1   
    11     4     5 ar  
    12     4    20 1   
    13     4    22 ar  
    14     5     6 ar  
    15     5    30 1   
    16     6    21 ar  
    17     6    24 1   
    18     7    21 ar  
    19     7    22 ar  
    20     7    31 1   
    21     8     9 ar  
    22     8    13 ar  
    23     8    51 1   
    24     9    10 ar  
    25     9    50 1   
    26    10    11 ar  
    27    10    35 1   
    28    11    12 ar  
    29    11    49 1   
    30    12    13 ar  
    31    12    36 1   
    32    13    37 1   
    33    14    16 1   
    34    14    49 1   
    35    15    40 1   
    36    15    41 1   
    37    16    42 1   
    38    16    43 1   
    39    17    18 2   
    40    17    19 1   
    41    17    50 1   
    42    19    20 1   
    43    19    45 1   
    44    19    46 1   
    45    20    47 1   
    46    21    23 1   
    47    22    48 1   
    48    32    51 1   
    49    33    51 1   
    50    34    51 1   
    51    38    49 1   
    52    39    49 1   
    53    44    50 1   
@<TRIPOS>SUBSTRUCTURE
     1 7RS         1 TEMP              0 ****  ****    0 ROOT
