@<TRIPOS>MOLECULE
7RT
   23    24     1     0     0
SMALL
No Charge or Current Charge


@<TRIPOS>ATOM
      1 C10         22.2600   -23.3080    26.8900 ca         1 7RT      -0.107000
      2 C01         22.2180   -29.8510    25.9130 c3         1 7RT       0.096300
      3 C03         23.1760   -27.5320    26.1180 c          1 7RT       0.612700
      4 C04         22.8540   -26.0670    26.3860 ca         1 7RT      -0.098600
      5 C05         23.8510   -25.0600    26.3880 ca         1 7RT      -0.055800
      6 C06         25.2710   -25.1200    26.1660 cc         1 7RT      -0.221200
      7 C07         25.7740   -23.8310    26.2850 cd         1 7RT      -0.166100
      8 C09         23.5640   -23.7400    26.6290 ca         1 7RT      -0.061200
      9 C11         21.2350   -24.2700    26.8990 ca         1 7RT      -0.106000
     10 C12         21.5240   -25.6310    26.6510 ca         1 7RT      -0.117000
     11 N02         22.1110   -28.4090    26.1450 ns         1 7RT      -0.508900
     12 N08         24.7050   -22.9540    26.5770 na         1 7RT      -0.223700
     13 O13         24.3060   -27.9430    25.8880 o          1 7RT      -0.598100
     14 H1          22.0430   -22.2590    27.0800 ha         1 7RT       0.114000
     15 H2          21.2240   -30.3100    25.9920 h1         1 7RT       0.038367
     16 H3          22.6220   -30.0340    24.9090 h1         1 7RT       0.038367
     17 H4          22.8840   -30.2980    26.6620 h1         1 7RT       0.038367
     18 H5          25.8710   -26.0000    25.9440 ha         1 7RT       0.224000
     19 H6          26.7990   -23.4780    26.1840 h4         1 7RT       0.213000
     20 H7          20.2100   -23.9630    27.0990 ha         1 7RT       0.113000
     21 H8          20.6960   -26.3330    26.6700 ha         1 7RT       0.110000
     22 H9          21.1990   -28.0170    26.3400 hn         1 7RT       0.316500
     23 H10         24.7600   -21.9490    26.7190 hn         1 7RT       0.349000
@<TRIPOS>BOND
     1     1     8 ar  
     2     1     9 ar  
     3     1    14 1   
     4     2    11 1   
     5     2    15 1   
     6     2    16 1   
     7     2    17 1   
     8     3     4 1   
     9     3    11 1   
    10     3    13 2   
    11     4     5 ar  
    12     4    10 ar  
    13     5     6 1   
    14     5     8 ar  
    15     6     7 2   
    16     6    18 1   
    17     7    12 1   
    18     7    19 1   
    19     8    12 1   
    20     9    10 ar  
    21     9    20 1   
    22    10    21 1   
    23    11    22 1   
    24    12    23 1   
@<TRIPOS>SUBSTRUCTURE
     1 7RT         1 TEMP              0 ****  ****    0 ROOT
