@<TRIPOS>MOLECULE
7RT
   23    24     1     0     0
SMALL
abcg2


@<TRIPOS>ATOM
      1 C10         22.2320   -23.3100    26.8410 ca         1 7RT      -0.107000
      2 C01         22.3400   -29.7700    26.0720 c3         1 7RT       0.096300
      3 C03         23.0330   -27.4440    25.8160 c          1 7RT       0.612700
      4 C04         22.7590   -26.0260    26.1880 ca         1 7RT      -0.098600
      5 C05         23.8250   -25.1150    26.3170 ca         1 7RT      -0.055800
      6 C06         25.2470   -25.2090    26.2190 cc         1 7RT      -0.221200
      7 C07         25.7420   -23.9660    26.4970 cd         1 7RT      -0.166100
      8 C09         23.5320   -23.7730    26.6590 ca         1 7RT      -0.061200
      9 C11         21.2050   -24.2190    26.6860 ca         1 7RT      -0.106000
     10 C12         21.4660   -25.5590    26.3700 ca         1 7RT      -0.117000
     11 N02         22.2160   -28.3610    26.3600 ns         1 7RT      -0.508900
     12 N08         24.7170   -23.1070    26.7590 na         1 7RT      -0.223700
     13 O13         23.9480   -27.7500    25.0610 o          1 7RT      -0.598100
     14 H1          22.0340   -22.2750    27.0910 ha         1 7RT       0.114000
     15 H2          21.5790   -30.3040    26.6340 h1         1 7RT       0.038367
     16 H3          22.1910   -29.9780    25.0120 h1         1 7RT       0.038367
     17 H4          23.3170   -30.1600    26.3610 h1         1 7RT       0.038367
     18 H5          25.8340   -26.0770    25.9730 ha         1 7RT       0.224000
     19 H6          26.7640   -23.6250    26.5250 h4         1 7RT       0.213000
     20 H7          20.1800   -23.8950    26.8070 ha         1 7RT       0.113000
     21 H8          20.6240   -26.2270    26.2410 ha         1 7RT       0.110000
     22 H9          21.5510   -28.0770    27.0580 hn         1 7RT       0.316500
     23 H10         24.8220   -22.1320    26.9870 hn         1 7RT       0.349000
@<TRIPOS>BOND
     1     1     8 ar  
     2     1     9 ar  
     3     1    14 1   
     4     2    11 1   
     5     2    15 1   
     6     2    16 1   
     7     2    17 1   
     8     3     4 1   
     9     3    11 1   
    10     3    13 2   
    11     4     5 ar  
    12     4    10 ar  
    13     5     6 1   
    14     5     8 ar  
    15     6     7 2   
    16     6    18 1   
    17     7    12 1   
    18     7    19 1   
    19     8    12 1   
    20     9    10 ar  
    21     9    20 1   
    22    10    21 1   
    23    11    22 1   
    24    12    23 1   
@<TRIPOS>SUBSTRUCTURE
     1 7RT         1 TEMP              0 ****  ****    0 ROOT
