@<TRIPOS>MOLECULE
7RU
   60    62     1     0     0
SMALL
bcc


@<TRIPOS>ATOM
      1 N1         -34.4680   -13.4450   135.8870 n          1 7RU      -0.502800
      2 N3         -26.8260   -11.7620   141.5310 n3         1 7RU      -0.746600
      3 C4         -32.0340   -11.6780   137.9910 c6         1 7RU       0.117700
      4 C5         -32.2040   -11.4030   139.4820 c6         1 7RU      -0.091400
      5 C6         -31.0650   -10.5490   140.0260 c6         1 7RU      -0.069400
      6 C7         -29.6990   -11.1790   139.7620 c6         1 7RU      -0.063700
      7 C8         -29.5360   -11.4230   138.2620 c6         1 7RU      -0.069400
      8 C10        -28.5770   -10.3140   140.3390 c3         1 7RU      -0.109400
      9 C13        -26.9550   -13.8460   142.7690 c6         1 7RU       0.187300
     10 C15        -26.7060   -11.0290   142.7720 c6         1 7RU       0.175300
     11 C17        -27.5530   -14.6930   145.7120 ca         1 7RU       0.010400
     12 C20        -25.0580   -14.6290   146.9050 ca         1 7RU      -0.101000
     13 C21        -25.3080   -13.8610   145.7790 ca         1 7RU      -0.169000
     14 C1         -35.0100   -14.3810   136.8480 c3         1 7RU       0.104300
     15 C11        -27.1780   -10.9520   140.3790 c3         1 7RU       0.183800
     16 C12        -27.6030   -12.9660   141.7180 c6         1 7RU       0.175300
     17 C14        -26.0540   -11.8990   143.8350 c6         1 7RU       0.187300
     18 C16        -26.5550   -13.8780   145.1530 ca         1 7RU       0.147600
     19 C18        -27.2840   -15.4810   146.8240 ca         1 7RU       0.040400
     20 C19        -26.0370   -15.4550   147.4290 ca         1 7RU      -0.135000
     21 C2         -34.8630   -13.5210   134.4960 c3         1 7RU       0.104300
     22 C3         -33.5250   -12.5210   136.2240 c          1 7RU       0.784100
     23 C9         -30.6620   -12.2910   137.7100 c6         1 7RU      -0.091400
     24 N2         -33.1190   -12.5180   137.5240 ns         1 7RU      -0.581900
     25 N4         -26.8400   -13.1060   144.0230 nh         1 7RU      -0.639000
     26 O1         -33.0920   -11.7170   135.4000 o          1 7RU      -0.645100
     27 CL1        -28.5130   -16.4900   147.4940 cl         1 7RU      -0.086400
     28 H2         -32.1030   -10.7260   137.4590 h1         1 7RU       0.082700
     29 H3         -33.1660   -10.9150   139.6580 hc         1 7RU       0.044450
     30 H4         -32.2300   -12.3540   140.0280 hc         1 7RU       0.044450
     31 H5         -31.0980    -9.5550   139.5650 hc         1 7RU       0.042950
     32 H6         -31.2040   -10.3950   141.1000 hc         1 7RU       0.042950
     33 H7         -29.6880   -12.1560   140.2590 hc         1 7RU       0.046700
     34 H8         -28.5750   -11.8950   138.0460 hc         1 7RU       0.042950
     35 H9         -29.5270   -10.4580   137.7410 hc         1 7RU       0.042950
     36 H10        -28.5180    -9.3960   139.7440 hc         1 7RU       0.043700
     37 H11        -28.8550    -9.9880   141.3470 hc         1 7RU       0.043700
     38 H12        -27.5590   -14.7400   142.9110 h1         1 7RU       0.044700
     39 H13        -25.9630   -14.1700   142.4220 h1         1 7RU       0.044700
     40 H14        -26.0760   -10.1510   142.6100 h1         1 7RU       0.040450
     41 H15        -27.6750   -10.6690   143.1550 h1         1 7RU       0.040450
     42 H16        -24.0810   -14.5980   147.3700 ha         1 7RU       0.138000
     43 H17        -24.5180   -13.2430   145.3760 ha         1 7RU       0.140000
     44 H18        -34.2720   -15.1110   137.1920 h1         1 7RU       0.036867
     45 H19        -35.4220   -13.8710   137.7210 h1         1 7RU       0.036867
     46 H20        -35.8240   -14.9360   136.3890 h1         1 7RU       0.036867
     47 H21        -27.0280   -11.5680   139.4860 h1         1 7RU       0.050700
     48 H22        -26.4310   -10.1550   140.3200 h1         1 7RU       0.050700
     49 H23        -28.6380   -12.7640   142.0360 h1         1 7RU       0.040450
     50 H24        -27.6520   -13.5160   140.7740 h1         1 7RU       0.040450
     51 H25        -25.0220   -12.1190   143.5240 h1         1 7RU       0.044700
     52 H26        -26.0100   -11.3460   144.7740 h1         1 7RU       0.044700
     53 H27        -25.8430   -16.0670   148.2990 ha         1 7RU       0.151000
     54 H28        -35.6390   -14.2740   134.3920 h1         1 7RU       0.036867
     55 H29        -35.2690   -12.5750   134.1340 h1         1 7RU       0.036867
     56 H30        -34.0350   -13.8040   133.8430 h1         1 7RU       0.036867
     57 H31        -30.6180   -13.2850   138.1690 hc         1 7RU       0.044450
     58 H32        -30.5380   -12.4340   136.6330 hc         1 7RU       0.044450
     59 H33        -33.3350   -13.3080   138.1110 hn         1 7RU       0.300500
     60 CL2        -29.1440   -14.6710   145.0500 cl         1 7RU      -0.077400
@<TRIPOS>BOND
     1     1    14 1   
     2     1    21 1   
     3     1    22 1   
     4     2    10 1   
     5     2    15 1   
     6     2    16 1   
     7     3     4 1   
     8     3    23 1   
     9     3    24 1   
    10     3    28 1   
    11     4     5 1   
    12     4    29 1   
    13     4    30 1   
    14     5     6 1   
    15     5    31 1   
    16     5    32 1   
    17     6     7 1   
    18     6     8 1   
    19     6    33 1   
    20     7    23 1   
    21     7    34 1   
    22     7    35 1   
    23     8    15 1   
    24     8    36 1   
    25     8    37 1   
    26     9    16 1   
    27     9    25 1   
    28     9    38 1   
    29     9    39 1   
    30    10    17 1   
    31    10    40 1   
    32    10    41 1   
    33    11    18 ar  
    34    11    19 ar  
    35    11    60 1   
    36    12    13 ar  
    37    12    20 ar  
    38    12    42 1   
    39    13    18 ar  
    40    13    43 1   
    41    14    44 1   
    42    14    45 1   
    43    14    46 1   
    44    15    47 1   
    45    15    48 1   
    46    16    49 1   
    47    16    50 1   
    48    17    25 1   
    49    17    51 1   
    50    17    52 1   
    51    18    25 1   
    52    19    20 ar  
    53    19    27 1   
    54    20    53 1   
    55    21    54 1   
    56    21    55 1   
    57    21    56 1   
    58    22    24 1   
    59    22    26 2   
    60    23    57 1   
    61    23    58 1   
    62    24    59 1   
@<TRIPOS>SUBSTRUCTURE
     1 7RU         1 TEMP              0 ****  ****    0 ROOT
