@<TRIPOS>MOLECULE
7RU
   60    62     1     0     0
SMALL
No Charge or Current Charge


@<TRIPOS>ATOM
      1 N1         -34.5560   -13.4740   135.7700 n          1 7RU      -0.435800
      2 N3         -26.6740   -11.6620   141.4830 n3         1 7RU      -0.746600
      3 C4         -32.0630   -11.6720   137.9280 c6         1 7RU       0.117700
      4 C5         -32.2440   -11.5290   139.4600 c6         1 7RU      -0.091400
      5 C6         -31.1310   -10.6460   140.0780 c6         1 7RU      -0.069400
      6 C7         -29.7160   -11.2090   139.7720 c6         1 7RU      -0.063700
      7 C8         -29.5350   -11.3830   138.2350 c6         1 7RU      -0.069400
      8 C10        -28.6140   -10.2990   140.4100 c3         1 7RU      -0.109400
      9 C13        -26.7440   -13.8790   142.7260 c6         1 7RU       0.187300
     10 C15        -26.5710   -10.9590   142.8020 c6         1 7RU       0.175300
     11 C17        -27.5710   -14.5960   145.8140 ca         1 7RU       0.102000
     12 C20        -25.0320   -14.8090   147.0230 ca         1 7RU      -0.083000
     13 C21        -25.1930   -14.0580   145.8470 ca         1 7RU      -0.151000
     14 C1         -35.0940   -14.4140   136.7820 c3         1 7RU       0.104300
     15 C11        -27.1430   -10.8070   140.3570 c3         1 7RU       0.183800
     16 C12        -27.4010   -12.9590   141.6470 c6         1 7RU       0.175300
     17 C14        -25.9120   -11.8490   143.9070 c6         1 7RU       0.187300
     18 C16        -26.4550   -13.9420   145.2300 ca         1 7RU       0.286000
     19 C18        -27.4030   -15.3480   146.9970 ca         1 7RU       0.132000
     20 C19        -26.1380   -15.4540   147.5970 ca         1 7RU      -0.117000
     21 C2         -35.1000   -13.5470   134.3960 c3         1 7RU       0.104300
     22 C3         -33.5560   -12.5340   136.0790 c          1 7RU       0.650100
     23 C9         -30.6600   -12.2570   137.6250 c6         1 7RU      -0.091400
     24 N2         -33.1120   -12.5380   137.3790 ns         1 7RU      -0.514900
     25 N4         -26.5820   -13.1820   144.0400 nh         1 7RU      -0.777400
     26 O1         -33.1100   -11.7600   135.2460 o          1 7RU      -0.645100
     27 Cl1        -28.7690   -16.1710   147.7550 cl         1 7RU      -0.178000
     28 H2         -32.1480   -10.6770   137.4650 h1         1 7RU       0.082700
     29 H3         -33.2260   -11.0870   139.6780 hc         1 7RU       0.044450
     30 H4         -32.2330   -12.5190   139.9350 hc         1 7RU       0.044450
     31 H5         -31.2190    -9.6210   139.6900 hc         1 7RU       0.042950
     32 H6         -31.2820   -10.5810   141.1640 hc         1 7RU       0.042950
     33 H7         -29.6420   -12.1980   140.2390 hc         1 7RU       0.046700
     34 H8         -28.5680   -11.8490   138.0100 hc         1 7RU       0.042950
     35 H9         -29.5280   -10.3990   137.7460 hc         1 7RU       0.042950
     36 H10        -28.6360    -9.3300   139.8960 hc         1 7RU       0.043700
     37 H11        -28.8760   -10.0720   141.4490 hc         1 7RU       0.043700
     38 H12        -27.3630   -14.7800   142.8400 h1         1 7RU       0.044700
     39 H13        -25.7600   -14.2070   142.3580 h1         1 7RU       0.044700
     40 H14        -25.9800   -10.0370   142.6990 h1         1 7RU       0.040450
     41 H15        -27.5680   -10.6630   143.1570 h1         1 7RU       0.040450
     42 H16        -24.0510   -14.8930   147.4880 ha         1 7RU       0.120000
     43 H17        -24.3260   -13.5720   145.4070 ha         1 7RU       0.122000
     44 H18        -34.2830   -15.0420   137.1740 h1         1 7RU       0.036867
     45 H19        -35.5490   -13.8510   137.6070 h1         1 7RU       0.036867
     46 H20        -35.8580   -15.0670   136.3420 h1         1 7RU       0.036867
     47 H21        -26.9740   -11.3280   139.4070 h1         1 7RU       0.050700
     48 H22        -26.4980    -9.9180   140.3190 h1         1 7RU       0.050700
     49 H23        -28.4370   -12.7730   141.9610 h1         1 7RU       0.040450
     50 H24        -27.4390   -13.5020   140.6920 h1         1 7RU       0.040450
     51 H25        -24.8510   -11.9900   143.6540 h1         1 7RU       0.044700
     52 H26        -25.9530   -11.3070   144.8630 h1         1 7RU       0.044700
     53 H27        -26.0170   -16.0360   148.5070 ha         1 7RU       0.133000
     54 H28        -35.8780   -14.3170   134.3210 h1         1 7RU       0.036867
     55 H29        -35.5360   -12.5780   134.1200 h1         1 7RU       0.036867
     56 H30        -34.2930   -13.7910   133.6930 h1         1 7RU       0.036867
     57 H31        -30.5870   -13.2790   138.0210 hc         1 7RU       0.044450
     58 H32        -30.5140   -12.3320   136.5390 hc         1 7RU       0.044450
     59 H33        -33.5430   -13.2120   137.9950 hn         1 7RU       0.300500
     60 Cl2        -29.1860   -14.4540   145.0880 cl         1 7RU      -0.169000
@<TRIPOS>BOND
     1     1    14 1   
     2     1    21 1   
     3     1    22 1   
     4     2    10 1   
     5     2    15 1   
     6     2    16 1   
     7     3     4 1   
     8     3    23 1   
     9     3    24 1   
    10     3    28 1   
    11     4     5 1   
    12     4    29 1   
    13     4    30 1   
    14     5     6 1   
    15     5    31 1   
    16     5    32 1   
    17     6     7 1   
    18     6     8 1   
    19     6    33 1   
    20     7    23 1   
    21     7    34 1   
    22     7    35 1   
    23     8    15 1   
    24     8    36 1   
    25     8    37 1   
    26     9    16 1   
    27     9    25 1   
    28     9    38 1   
    29     9    39 1   
    30    10    17 1   
    31    10    40 1   
    32    10    41 1   
    33    11    18 ar  
    34    11    19 ar  
    35    11    60 1   
    36    12    13 ar  
    37    12    20 ar  
    38    12    42 1   
    39    13    18 ar  
    40    13    43 1   
    41    14    44 1   
    42    14    45 1   
    43    14    46 1   
    44    15    47 1   
    45    15    48 1   
    46    16    49 1   
    47    16    50 1   
    48    17    25 1   
    49    17    51 1   
    50    17    52 1   
    51    18    25 1   
    52    19    20 ar  
    53    19    27 1   
    54    20    53 1   
    55    21    54 1   
    56    21    55 1   
    57    21    56 1   
    58    22    24 1   
    59    22    26 2   
    60    23    57 1   
    61    23    58 1   
    62    24    59 1   
@<TRIPOS>SUBSTRUCTURE
     1 7RU         1 TEMP              0 ****  ****    0 ROOT
