@<TRIPOS>MOLECULE
7RV
   67    71     1     0     0
SMALL
abcg2


@<TRIPOS>ATOM
      1 C10          1.2330    -3.1550     1.0460 c6         1 7RV      -0.125400
      2 C13          3.5700     0.6780    -0.9810 c6         1 7RV       0.196800
      3 C15          3.8420     0.1890     1.3490 c6         1 7RV       0.196800
      4 C17          5.1290     1.9960     0.3430 ca         1 7RV       0.292000
      5 C20          6.6210     4.3690     0.6890 ca         1 7RV      -0.142000
      6 C21          6.7910     3.2910     1.5500 ca         1 7RV      -0.081000
      7 C22          6.0650     2.1250     1.3820 ca         1 7RV      -0.162500
      8 C24         -0.8430     1.7000    -0.4980 ca         1 7RV      -0.043000
      9 C26         -2.6770     3.0650     0.1150 ca         1 7RV       0.370900
     10 C28         -3.0890     0.8990    -0.4810 ca         1 7RV       0.495300
     11 C02         -1.2610    -0.6900    -1.1700 c          1 7RV       0.616700
     12 N03         -0.0400    -1.0600    -0.7790 ns         1 7RV      -0.496900
     13 C04          0.6200    -2.2640    -1.2210 c3         1 7RV       0.105000
     14 C05          1.7930    -2.5840    -0.2670 c6         1 7RV       0.201200
     15 C06          2.6870    -3.6660    -0.8950 c6         1 7RV      -0.125400
     16 C07          2.0040    -5.0260    -0.9520 c6         1 7RV       0.153100
     17 O08          1.5480    -5.4460     0.3150 os         1 7RV      -0.447000
     18 C09          0.6210    -4.5370     0.8630 c6         1 7RV       0.153100
     19 N11          2.5010    -1.3100    -0.0280 n3         1 7RV      -0.756600
     20 C12          3.1670    -0.7680    -1.2020 c6         1 7RV       0.164300
     21 N14          4.4340     0.7990     0.1700 nh         1 7RV      -0.787400
     22 C16          3.4250    -1.2470     1.0910 c6         1 7RV       0.164300
     23 C18          4.9600     3.0910    -0.5130 ca         1 7RV      -0.162500
     24 C19          5.7030     4.2530    -0.3430 ca         1 7RV      -0.081000
     25 C23         -1.7240     0.6440    -0.6940 ca         1 7RV      -0.196600
     26 C25         -1.3150     2.9350    -0.0860 ca         1 7RV      -0.188000
     27 N27         -3.5380     2.0740    -0.0800 nb         1 7RV      -0.684000
     28 C30         -5.7120     0.3400     0.0440 ca         1 7RV      -0.143000
     29 C31         -6.7180     0.8840    -0.7460 ca         1 7RV      -0.053000
     30 C32         -7.8720     1.3790    -0.1530 ca         1 7RV      -0.126000
     31 C33         -8.0190     1.3340     1.2270 ca         1 7RV      -0.086000
     32 C34         -7.0130     0.7880     2.0160 ca         1 7RV      -0.126000
     33 C35         -5.8630     0.2840     1.4260 ca         1 7RV      -0.053000
     34 H1           2.0310    -3.2700     1.7810 hc         1 7RV       0.056700
     35 H2           0.4930    -2.4810     1.4860 hc         1 7RV       0.056700
     36 H3           4.0990     1.0130    -1.8740 h1         1 7RV       0.042200
     37 H4           2.6650     1.3000    -0.8870 h1         1 7RV       0.042200
     38 H5           4.5550     0.1810     2.1720 h1         1 7RV       0.042200
     39 H6           2.9630     0.7600     1.6820 h1         1 7RV       0.042200
     40 H7           7.1940     5.2780     0.8200 ha         1 7RV       0.115000
     41 H8           7.5070     3.3510     2.3600 ha         1 7RV       0.110500
     42 H9           6.2490     1.2980     2.0560 ha         1 7RV       0.111500
     43 H10          0.2170     1.5780    -0.6850 ha         1 7RV       0.117000
     44 H11         -3.1000     4.0090     0.4380 h4         1 7RV       0.022100
     45 H12          0.5270    -0.4760    -0.1780 hn         1 7RV       0.341500
     46 H13         -0.0970    -3.0830    -1.2450 h1         1 7RV       0.053200
     47 H14          0.9810    -2.1530    -2.2480 h1         1 7RV       0.053200
     48 H15          2.9850    -3.3880    -1.9090 hc         1 7RV       0.056700
     49 H16          3.6060    -3.7510    -0.3080 hc         1 7RV       0.056700
     50 H17          1.1720    -5.0060    -1.6700 h1         1 7RV       0.050200
     51 H18          2.7100    -5.7800    -1.3040 h1         1 7RV       0.050200
     52 H19          0.3250    -4.9310     1.8370 h1         1 7RV       0.050200
     53 H20         -0.2900    -4.4990     0.2500 h1         1 7RV       0.050200
     54 H22          2.5030    -0.7850    -2.0670 h1         1 7RV       0.045700
     55 H23          4.0640    -1.3430    -1.4720 h1         1 7RV       0.045700
     56 H24          4.3210    -1.8650     0.9290 h1         1 7RV       0.045700
     57 H25          2.9500    -1.5950     2.0050 h1         1 7RV       0.045700
     58 H26          4.2390     3.0610    -1.3190 ha         1 7RV       0.111500
     59 H27          5.5440     5.0790    -1.0240 ha         1 7RV       0.110500
     60 H28         -0.6470     3.7690     0.0690 ha         1 7RV       0.128000
     61 H29         -6.6000     0.9210    -1.8210 ha         1 7RV       0.121000
     62 H30         -8.6550     1.8000    -0.7690 ha         1 7RV       0.112500
     63 H31         -8.9180     1.7220     1.6880 ha         1 7RV       0.111000
     64 H32         -7.1280     0.7470     3.0910 ha         1 7RV       0.112500
     65 H33         -5.0830    -0.1510     2.0370 ha         1 7RV       0.121000
     66 S29         -4.2910    -0.3850    -0.7310 ss         1 7RV      -0.078300
     67 O01         -1.9860    -1.3850    -1.8730 o          1 7RV      -0.599100
@<TRIPOS>BOND
     1     1    14 1   
     2     1    18 1   
     3     1    34 1   
     4     1    35 1   
     5     2    20 1   
     6     2    21 1   
     7     2    36 1   
     8     2    37 1   
     9     3    21 1   
    10     3    22 1   
    11     3    38 1   
    12     3    39 1   
    13     4     7 ar  
    14     4    21 1   
    15     4    23 ar  
    16     5     6 ar  
    17     5    24 ar  
    18     5    40 1   
    19     6     7 ar  
    20     6    41 1   
    21     7    42 1   
    22     8    25 ar  
    23     8    26 ar  
    24     8    43 1   
    25     9    26 ar  
    26     9    27 ar  
    27     9    44 1   
    28    10    25 ar  
    29    10    27 ar  
    30    10    66 1   
    31    11    12 1   
    32    11    25 1   
    33    11    67 2   
    34    12    13 1   
    35    12    45 1   
    36    13    14 1   
    37    13    46 1   
    38    13    47 1   
    39    14    15 1   
    40    14    19 1   
    41    15    16 1   
    42    15    48 1   
    43    15    49 1   
    44    16    17 1   
    45    16    50 1   
    46    16    51 1   
    47    17    18 1   
    48    18    52 1   
    49    18    53 1   
    50    19    20 1   
    51    19    22 1   
    52    20    54 1   
    53    20    55 1   
    54    22    56 1   
    55    22    57 1   
    56    23    24 ar  
    57    23    58 1   
    58    24    59 1   
    59    26    60 1   
    60    28    29 ar  
    61    28    33 ar  
    62    28    66 1   
    63    29    30 ar  
    64    29    61 1   
    65    30    31 ar  
    66    30    62 1   
    67    31    32 ar  
    68    31    63 1   
    69    32    33 ar  
    70    32    64 1   
    71    33    65 1   
@<TRIPOS>SUBSTRUCTURE
     1 7RV         1 TEMP              0 ****  ****    0 ROOT
