@<TRIPOS>MOLECULE
7RV
   67    71     1     0     0
SMALL
No Charge or Current Charge


@<TRIPOS>ATOM
      1 C10         -0.2570    -2.1680     1.0980 c6         1 7RV      -0.125400
      2 C13          3.3890     0.9380    -0.6830 c6         1 7RV       0.196800
      3 C15          3.0920     0.7060     1.7690 c6         1 7RV       0.196800
      4 C17          5.0940     1.9600     0.8940 ca         1 7RV       0.292000
      5 C20          7.2280     3.7460     1.3930 ca         1 7RV      -0.142000
      6 C21          7.0740     2.5970     2.1850 ca         1 7RV      -0.081000
      7 C22          6.0110     1.7110     1.9340 ca         1 7RV      -0.162500
      8 C24         -1.2640     2.2780    -2.0560 ca         1 7RV      -0.043000
      9 C26         -3.0840     3.8660    -2.0160 ca         1 7RV       0.370900
     10 C28         -3.5940     1.5980    -2.0620 ca         1 7RV       0.495300
     11 C02         -1.7880    -0.1880    -2.1630 c          1 7RV       0.616700
     12 N03         -0.6200    -0.4700    -1.5010 ns         1 7RV      -0.496900
     13 C04          0.0150    -1.7860    -1.4110 c3         1 7RV       0.105000
     14 C05          0.7990    -1.9630    -0.0490 c6         1 7RV       0.201200
     15 C06          1.6780    -3.2580    -0.1190 c6         1 7RV      -0.125400
     16 C07          0.8160    -4.5420    -0.2080 c6         1 7RV       0.153100
     17 O08         -0.0950    -4.6020     0.9080 os         1 7RV      -0.447000
     18 C09         -1.0290    -3.5040     0.9670 c6         1 7RV       0.153100
     19 N11          1.6370    -0.7140     0.2030 n3         1 7RV      -0.756600
     20 C12          2.6460    -0.4230    -0.8800 c6         1 7RV       0.164300
     21 N14          4.0340     1.0520     0.6610 nh         1 7RV      -0.787400
     22 C16          2.3420    -0.6470     1.5360 c6         1 7RV       0.164300
     23 C18          5.2620     3.1160     0.1040 ca         1 7RV      -0.162500
     24 C19          6.3230     4.0060     0.3520 ca         1 7RV      -0.081000
     25 C23         -2.2250     1.2430    -2.0890 ca         1 7RV      -0.196600
     26 C25         -1.7080     3.6060    -2.0210 ca         1 7RV      -0.188000
     27 N27         -4.0110     2.8860    -2.0280 nb         1 7RV      -0.684000
     28 C30         -4.5040    -0.3980    -0.3770 ca         1 7RV      -0.143000
     29 C31         -4.0810     0.3680     0.7270 ca         1 7RV      -0.053000
     30 C32         -3.7660    -0.2640     1.9430 ca         1 7RV      -0.126000
     31 C33         -3.8810    -1.6590     2.0630 ca         1 7RV      -0.086000
     32 C34         -4.3090    -2.4240     0.9640 ca         1 7RV      -0.126000
     33 C35         -4.6180    -1.7950    -0.2540 ca         1 7RV      -0.053000
     34 H1           0.2230    -2.2000     2.0820 hc         1 7RV       0.056700
     35 H2          -0.9640    -1.3290     1.1280 hc         1 7RV       0.056700
     36 H3           4.1470     1.0320    -1.4750 h1         1 7RV       0.042200
     37 H4           2.6660     1.7550    -0.8190 h1         1 7RV       0.042200
     38 H5           3.6250     0.6400     2.7280 h1         1 7RV       0.042200
     39 H6           2.3430     1.5050     1.8740 h1         1 7RV       0.042200
     40 H7           8.0500     4.4330     1.5850 ha         1 7RV       0.115000
     41 H8           7.7760     2.3920     2.9890 ha         1 7RV       0.110500
     42 H9           5.9080     0.8190     2.5450 ha         1 7RV       0.111500
     43 H10         -0.1960     2.0680    -2.0860 ha         1 7RV       0.117000
     44 H11         -3.4570     4.8890    -1.9920 h4         1 7RV       0.022100
     45 H12         -0.2050     0.2720    -0.9490 hn         1 7RV       0.341500
     46 H13         -0.7440    -2.5660    -1.5310 h1         1 7RV       0.053200
     47 H14          0.7110    -1.8910    -2.2530 h1         1 7RV       0.053200
     48 H15          2.3520    -3.2250    -0.9850 hc         1 7RV       0.056700
     49 H16          2.3180    -3.3390     0.7680 hc         1 7RV       0.056700
     50 H17          0.2470    -4.5720    -1.1490 h1         1 7RV       0.050200
     51 H18          1.4660    -5.4280    -0.1810 h1         1 7RV       0.050200
     52 H19         -1.6770    -3.6420     1.8440 h1         1 7RV       0.050200
     53 H20         -1.6740    -3.5160     0.0770 h1         1 7RV       0.050200
     54 H22          2.1770    -0.3890    -1.8720 h1         1 7RV       0.045700
     55 H23          3.4070    -1.2150    -0.9150 h1         1 7RV       0.045700
     56 H24          3.0770    -1.4590     1.6270 h1         1 7RV       0.045700
     57 H25          1.6400    -0.7490     2.3720 h1         1 7RV       0.045700
     58 H26          4.5670     3.3410    -0.6990 ha         1 7RV       0.111500
     59 H27          6.4410     4.8970    -0.2620 ha         1 7RV       0.110500
     60 H28         -1.0000     4.4290    -2.0070 ha         1 7RV       0.128000
     61 H29         -4.0010     1.4500     0.6530 ha         1 7RV       0.121000
     62 H30         -3.4380     0.3290     2.7940 ha         1 7RV       0.112500
     63 H31         -3.6410    -2.1460     3.0060 ha         1 7RV       0.111000
     64 H32         -4.4000    -3.5040     1.0560 ha         1 7RV       0.112500
     65 H33         -4.9450    -2.3920    -1.1030 ha         1 7RV       0.121000
     66 S29         -4.9120     0.3820    -1.9420 ss         1 7RV      -0.078300
     67 O01         -2.3610    -1.0340    -2.8330 o          1 7RV      -0.599100
@<TRIPOS>BOND
     1     1    14 1   
     2     1    18 1   
     3     1    34 1   
     4     1    35 1   
     5     2    20 1   
     6     2    21 1   
     7     2    36 1   
     8     2    37 1   
     9     3    21 1   
    10     3    22 1   
    11     3    38 1   
    12     3    39 1   
    13     4     7 ar  
    14     4    21 1   
    15     4    23 ar  
    16     5     6 ar  
    17     5    24 ar  
    18     5    40 1   
    19     6     7 ar  
    20     6    41 1   
    21     7    42 1   
    22     8    25 ar  
    23     8    26 ar  
    24     8    43 1   
    25     9    26 ar  
    26     9    27 ar  
    27     9    44 1   
    28    10    25 ar  
    29    10    27 ar  
    30    10    66 1   
    31    11    12 1   
    32    11    25 1   
    33    11    67 2   
    34    12    13 1   
    35    12    45 1   
    36    13    14 1   
    37    13    46 1   
    38    13    47 1   
    39    14    15 1   
    40    14    19 1   
    41    15    16 1   
    42    15    48 1   
    43    15    49 1   
    44    16    17 1   
    45    16    50 1   
    46    16    51 1   
    47    17    18 1   
    48    18    52 1   
    49    18    53 1   
    50    19    20 1   
    51    19    22 1   
    52    20    54 1   
    53    20    55 1   
    54    22    56 1   
    55    22    57 1   
    56    23    24 ar  
    57    23    58 1   
    58    24    59 1   
    59    26    60 1   
    60    28    29 ar  
    61    28    33 ar  
    62    28    66 1   
    63    29    30 ar  
    64    29    61 1   
    65    30    31 ar  
    66    30    62 1   
    67    31    32 ar  
    68    31    63 1   
    69    32    33 ar  
    70    32    64 1   
    71    33    65 1   
@<TRIPOS>SUBSTRUCTURE
     1 7RV         1 TEMP              0 ****  ****    0 ROOT
