@<TRIPOS>MOLECULE
7RW
   43    46     1     0     0
SMALL
bcc


@<TRIPOS>ATOM
      1 C13        -10.2100     4.2570    13.1380 cc         1 7RW      -0.108200
      2 C17        -12.9810     1.7440    15.6520 c          1 7RW       0.675100
      3 C16        -11.4750     1.7110    15.4090 c3         1 7RW      -0.019700
      4 C19        -14.8320     0.2050    16.2010 ca         1 7RW       0.126600
      5 C20        -15.7850     1.1270    16.6350 ca         1 7RW      -0.269300
      6 C11        -11.6130     2.4660    13.0840 ca         1 7RW       0.511800
      7 C12        -11.0660     3.4800    12.2950 ca         1 7RW      -0.389400
      8 C14        -10.2770     3.6890    14.3720 cd         1 7RW      -0.132100
      9 N22        -17.4680    -0.5720    16.8010 nb         1 7RW      -0.675000
     10 C02        -11.5100     3.4520    10.9690 ca         1 7RW       0.768600
     11 C04        -12.8260     1.6310    11.4250 ca         1 7RW       0.963900
     12 C06        -14.4760    -0.1530    11.7790 c3         1 7RW       0.262800
     13 C07        -15.5710     0.5470    12.5460 cx         1 7RW      -0.159700
     14 C08        -16.8160    -0.2000    12.9000 cx         1 7RW      -0.128900
     15 C09        -16.8580     0.8740    11.8540 cx         1 7RW      -0.128900
     16 C21        -17.0670     0.6880    16.9130 ca         1 7RW       0.423200
     17 C23        -16.5730    -1.4550    16.3870 ca         1 7RW       0.436200
     18 C24        -15.2680    -1.1190    16.0760 ca         1 7RW      -0.159900
     19 N03        -12.3680     2.5500    10.5480 nb         1 7RW      -0.893000
     20 N05        -13.7020     0.7280    10.9320 nu         1 7RW      -0.851900
     21 N10        -12.4800     1.5350    12.7020 nb         1 7RW      -0.823000
     22 N15        -11.1250     2.5960    14.3380 na         1 7RW      -0.160100
     23 N18        -13.5140     0.5170    15.9180 ns         1 7RW      -0.467100
     24 O01        -11.0580     4.3590    10.1140 oh         1 7RW      -0.592300
     25 O26        -13.6070     2.7780    15.6250 o          1 7RW      -0.545100
     26 CL25       -14.2000    -2.3540    15.5110 cl         1 7RW      -0.100400
     27 H131        -9.6250     5.1220    12.8690 ha         1 7RW       0.165000
     28 H162       -11.1160     0.7010    15.2000 h1         1 7RW       0.075700
     29 H161       -10.9780     2.0450    16.3220 h1         1 7RW       0.075700
     30 H201       -15.5410     2.1680    16.7650 ha         1 7RW       0.174000
     31 H141        -9.7850     3.9660    15.2910 h4         1 7RW       0.167000
     32 H061       -14.9110    -0.9180    11.1330 h1         1 7RW       0.057700
     33 H062       -13.8040    -0.6680    12.4670 h1         1 7RW       0.057700
     34 H1         -16.9040    -1.2310    12.5760 hc         1 7RW       0.070700
     35 H081       -17.2780     0.0010    13.8580 hc         1 7RW       0.070700
     36 H091       -17.3500     1.8060    12.0980 hc         1 7RW       0.070700
     37 H211       -17.8060     1.4040    17.2520 h4         1 7RW       0.026100
     38 H231       -16.8960    -2.4860    16.2880 h4         1 7RW       0.033100
     39 H051       -14.0700     0.9330    10.0180 hn         1 7RW       0.441800
     40 H181       -12.8910    -0.2700    15.8080 hn         1 7RW       0.334500
     41 H011       -11.4590     4.2070     9.2470 ho         1 7RW       0.448000
     42 H2         -15.2210     1.2690    13.2760 hc         1 7RW       0.098700
     43 H3         -16.9710     0.5700    10.8190 hc         1 7RW       0.070700
@<TRIPOS>BOND
     1     1     7 1   
     2     1     8 2   
     3     1    27 1   
     4     2     3 1   
     5     2    23 1   
     6     2    25 2   
     7     3    22 1   
     8     3    28 1   
     9     3    29 1   
    10     4     5 ar  
    11     4    18 ar  
    12     4    23 1   
    13     5    16 ar  
    14     5    30 1   
    15     6     7 ar  
    16     6    21 ar  
    17     6    22 1   
    18     7    10 ar  
    19     8    22 1   
    20     8    31 1   
    21     9    16 ar  
    22     9    17 ar  
    23    10    19 ar  
    24    10    24 1   
    25    11    19 ar  
    26    11    20 1   
    27    11    21 ar  
    28    12    13 1   
    29    12    20 1   
    30    12    32 1   
    31    12    33 1   
    32    13    14 1   
    33    13    15 1   
    34    13    42 1   
    35    14    15 1   
    36    14    34 1   
    37    14    35 1   
    38    15    36 1   
    39    15    43 1   
    40    16    37 1   
    41    17    18 ar  
    42    17    38 1   
    43    18    26 1   
    44    20    39 1   
    45    23    40 1   
    46    24    41 1   
@<TRIPOS>SUBSTRUCTURE
     1 7RW         1 TEMP              0 ****  ****    0 ROOT
