@<TRIPOS>MOLECULE
7RW
   43    46     1     0     0
SMALL
No Charge or Current Charge


@<TRIPOS>ATOM
      1 C13        -10.1930     4.2290    13.0200 cc         1 7RW      -0.158200
      2 C17        -12.8140     1.8780    16.0830 c          1 7RW       0.608100
      3 C16        -11.3330     1.8910    15.6700 c3         1 7RW       0.009600
      4 C19        -14.7940     0.2380    16.0890 ca         1 7RW       0.034000
      5 C20        -15.8120     1.0700    16.6000 ca         1 7RW      -0.186000
      6 C11        -11.6060     2.4500    13.2170 ca         1 7RW       0.183500
      7 C12        -11.0990     3.3590    12.3270 ca         1 7RW      -0.258800
      8 C14        -10.1750     3.8070    14.3410 cd         1 7RW      -0.182100
      9 N22        -17.4130    -0.7500    16.5910 nb         1 7RW      -0.675000
     10 C02        -11.4990     3.3150    10.9880 ca         1 7RW       0.440300
     11 C04        -12.8290     1.5460    11.5120 ca         1 7RW       0.437900
     12 C06        -14.6220    -0.2410    11.8630 c3         1 7RW       0.262800
     13 C07        -15.7330     0.5860    12.5010 cx         1 7RW      -0.159700
     14 C08        -17.0410    -0.0540    12.9080 cx         1 7RW      -0.128900
     15 C09        -17.0020     0.9020    11.7400 cx         1 7RW      -0.128900
     16 C21        -17.0920     0.5400    16.8340 ca         1 7RW       0.357900
     17 C23        -16.4410    -1.5510    16.0900 ca         1 7RW       0.370900
     18 C24        -15.1310    -1.1050    15.8240 ca         1 7RW      -0.003000
     19 N03        -12.3780     2.3930    10.5690 nb         1 7RW      -0.367000
     20 N05        -13.7390     0.6120    11.0560 nu         1 7RW      -0.907100
     21 N10        -12.4890     1.5160    12.8180 nb         1 7RW      -0.297000
     22 N15        -11.0530     2.7050    14.4680 na         1 7RW      -0.189400
     23 N18        -13.4630     0.6750    15.8390 ns         1 7RW      -0.141000
     24 O01        -11.0210     4.1910    10.0730 oh         1 7RW      -0.631300
     25 O26        -13.3490     2.8550    16.5970 o          1 7RW      -0.545100
     26 Cl25       -13.9330    -2.2320    15.1790 cl         1 7RW      -0.192000
     27 H131        -9.6190     5.0570    12.6050 ha         1 7RW       0.215000
     28 H162       -11.0040     0.8620    15.4850 h1         1 7RW       0.075700
     29 H161       -10.7560     2.2830    16.5150 h1         1 7RW       0.075700
     30 H201       -15.6460     2.1170    16.8240 ha         1 7RW       0.156000
     31 H141        -9.6110     4.2010    15.1830 h4         1 7RW       0.217000
     32 H061       -15.0720    -1.0160    11.2260 h1         1 7RW       0.057700
     33 H062       -14.0480    -0.7560    12.6460 h1         1 7RW       0.057700
     34 H1         -17.1840    -1.1110    12.6940 hc         1 7RW       0.070700
     35 H081       -17.5160     0.2930    13.8220 hc         1 7RW       0.070700
     36 H091       -17.4400     1.8880    11.8760 hc         1 7RW       0.070700
     37 H211       -17.8870     1.1700    17.2310 h4         1 7RW       0.026100
     38 H231       -16.7220    -2.5860    15.8970 h4         1 7RW       0.033100
     39 H051       -13.9710     0.7080    10.0680 hn         1 7RW       0.497000
     40 H181       -12.8800    -0.0310    15.4080 hn         1 7RW       0.168000
     41 H011       -11.4510     3.9480     9.2270 ho         1 7RW       0.487000
     42 H2         -15.3490     1.3590    13.1630 hc         1 7RW       0.098700
     43 H3         -17.1180     0.4870    10.7420 hc         1 7RW       0.070700
@<TRIPOS>BOND
     1     1     7 1   
     2     1     8 2   
     3     1    27 1   
     4     2     3 1   
     5     2    23 1   
     6     2    25 2   
     7     3    22 1   
     8     3    28 1   
     9     3    29 1   
    10     4     5 ar  
    11     4    18 ar  
    12     4    23 1   
    13     5    16 ar  
    14     5    30 1   
    15     6     7 ar  
    16     6    21 ar  
    17     6    22 1   
    18     7    10 ar  
    19     8    22 1   
    20     8    31 1   
    21     9    16 ar  
    22     9    17 ar  
    23    10    19 ar  
    24    10    24 1   
    25    11    19 ar  
    26    11    20 1   
    27    11    21 ar  
    28    12    13 1   
    29    12    20 1   
    30    12    32 1   
    31    12    33 1   
    32    13    14 1   
    33    13    15 1   
    34    13    42 1   
    35    14    15 1   
    36    14    34 1   
    37    14    35 1   
    38    15    36 1   
    39    15    43 1   
    40    16    37 1   
    41    17    18 ar  
    42    17    38 1   
    43    18    26 1   
    44    20    39 1   
    45    23    40 1   
    46    24    41 1   
@<TRIPOS>SUBSTRUCTURE
     1 7RW         1 TEMP              0 ****  ****    0 ROOT
