@<TRIPOS>MOLECULE
7RX
   19    19     1     0     0
SMALL
No Charge or Current Charge


@<TRIPOS>ATOM
      1 C02          8.0640   -24.9880     6.1240 c          1 7RX       0.722000
      2 C03          8.8620   -25.9190     7.0450 c3         1 7RX      -0.201400
      3 C04          8.9600   -27.3230     6.4110 c5         1 7RX       0.190500
      4 C05         10.0120   -28.2500     7.0650 c5         1 7RX      -0.087400
      5 C06          9.6280   -29.6280     6.4530 c5         1 7RX      -0.080400
      6 C07          8.1110   -29.4730     6.1230 c5         1 7RX       0.152800
      7 N08          7.7430   -28.1260     6.6050 n7         1 7RX      -0.855400
      8 OXY          6.8560   -24.9010     6.2840 o          1 7RX      -0.745000
      9 O09          8.6700   -24.3930     5.2450 o          1 7RX      -0.745000
     10 H1           8.3670   -26.0290     8.0180 hc         1 7RX       0.025700
     11 H2           9.8940   -25.5550     7.1250 hc         1 7RX       0.025700
     12 H3           9.1800   -27.2100     5.3390 h1         1 7RX       0.021700
     13 H4          11.0400   -27.9570     6.8260 hc         1 7RX       0.030700
     14 H5           9.9170   -28.2590     8.1580 hc         1 7RX       0.030700
     15 H6           9.8180   -30.4510     7.1520 hc         1 7RX       0.022700
     16 H7          10.2030   -29.8360     5.5430 hc         1 7RX       0.022700
     17 H8           7.4960   -30.2460     6.6020 h1         1 7RX       0.012200
     18 H9           7.9520   -29.5400     5.0380 h1         1 7RX       0.012200
     19 H            6.9660   -27.7410     6.0530 hn         1 7RX       0.446000
@<TRIPOS>BOND
     1     1     2 1   
     2     1     8 1   
     3     1     9 1   
     4     2     3 1   
     5     2    10 1   
     6     2    11 1   
     7     3     4 1   
     8     3     7 1   
     9     3    12 1   
    10     4     5 1   
    11     4    13 1   
    12     4    14 1   
    13     5     6 1   
    14     5    15 1   
    15     5    16 1   
    16     6     7 1   
    17     6    17 1   
    18     6    18 1   
    19     7    19 1   
@<TRIPOS>SUBSTRUCTURE
     1 7RX         1 TEMP              0 ****  ****    0 ROOT
