@<TRIPOS>MOLECULE
7RX
   19    19     1     0     0
SMALL
bcc


@<TRIPOS>ATOM
      1 C02          7.7900   -25.0160     6.4080 c          1 7RX       0.932600
      2 C03          8.7430   -26.0140     7.0980 c3         1 7RX      -0.201400
      3 C04          9.0250   -27.3020     6.3520 c5         1 7RX       0.190500
      4 C05         10.0010   -28.2450     7.0680 c5         1 7RX      -0.087400
      5 C06          9.5720   -29.6600     6.6290 c5         1 7RX      -0.080400
      6 C07          8.3410   -29.4210     5.7450 c5         1 7RX       0.152800
      7 N08          7.8420   -28.1390     6.2100 n7         1 7RX      -0.800200
      8 OXY          7.5190   -23.9890     7.0620 o          1 7RX      -0.850300
      9 O09          7.3750   -25.2970     5.2640 o          1 7RX      -0.850300
     10 H1           8.3400   -26.2580     8.0880 hc         1 7RX       0.025700
     11 H2           9.6910   -25.4970     7.2890 hc         1 7RX       0.025700
     12 H3           9.4540   -27.0540     5.3660 h1         1 7RX       0.021700
     13 H4          11.0360   -28.0170     6.8120 hc         1 7RX       0.030700
     14 H5           9.9070   -28.1340     8.1510 hc         1 7RX       0.030700
     15 H6           9.3170   -30.2730     7.4930 hc         1 7RX       0.022700
     16 H7          10.3550   -30.1870     6.0840 hc         1 7RX       0.022700
     17 H8           7.5870   -30.2050     5.8480 h1         1 7RX       0.012200
     18 H9           8.6460   -29.4000     4.6870 h1         1 7RX       0.012200
     19 H            7.1990   -27.7160     5.5530 hn         1 7RX       0.390800
@<TRIPOS>BOND
     1     1     2 1   
     2     1     8 1   
     3     1     9 1   
     4     2     3 1   
     5     2    10 1   
     6     2    11 1   
     7     3     4 1   
     8     3     7 1   
     9     3    12 1   
    10     4     5 1   
    11     4    13 1   
    12     4    14 1   
    13     5     6 1   
    14     5    15 1   
    15     5    16 1   
    16     6     7 1   
    17     6    17 1   
    18     6    18 1   
    19     7    19 1   
@<TRIPOS>SUBSTRUCTURE
     1 7RX         1 TEMP              0 ****  ****    0 ROOT
