@<TRIPOS>MOLECULE
7RY
   65    69     1     0     0
SMALL
bcc


@<TRIPOS>ATOM
      1 C10          5.4710     0.3070     0.0020 c3         1 7RY       0.226800
      2 N12          7.6190     1.4490     0.1040 n7         1 7RY      -0.807200
      3 C13          9.0450     1.3760     0.3580 c3         1 7RY       0.160800
      4 C17         -0.8630    -3.4610    -0.6870 ca         1 7RY      -0.150000
      5 C21         -3.4530     0.1530    -1.1670 c3         1 7RY      -0.149400
      6 C22         -4.6850     0.6740    -0.4260 c6         1 7RY      -0.027000
      7 C24         -5.5880     1.6980     1.6900 c6         1 7RY      -0.057033
      8 C26         -6.4250     2.5110    -0.5150 c6         1 7RY      -0.057033
      9 C28         -7.5420     1.4670    -0.4840 c6         1 7RY      -0.068733
     10 C01          0.1000    -4.4350    -0.3720 ca         1 7RY      -0.091000
     11 C02          1.4070    -4.0980    -0.1400 ca         1 7RY      -0.202300
     12 C03          1.8100    -2.7460    -0.1970 ca         1 7RY       0.474600
     13 C04          0.8370    -1.7540    -0.4780 ca         1 7RY      -0.217300
     14 C05          1.2860    -0.4090    -0.4640 ca         1 7RY      -0.050000
     15 C06          2.5920    -0.1200    -0.2290 ca         1 7RY      -0.293300
     16 C07          3.5020    -1.1960     0.0050 ca         1 7RY       0.700200
     17 N08          3.1080    -2.4520     0.0280 nb         1 7RY      -0.771000
     18 N09          4.8130    -0.9570     0.2400 nu         1 7RY      -0.881900
     19 C11          6.9440     0.1960     0.3600 c3         1 7RY       0.143800
     20 C14          9.7290     2.6970     0.0880 c3         1 7RY       0.135400
     21 O15          9.2470     3.6570     1.0060 oh         1 7RY      -0.607800
     22 C16         -0.5040    -2.1350    -0.7430 ca         1 7RY       0.093600
     23 N18         -1.4300    -1.1350    -1.0810 ns         1 7RY      -0.502100
     24 C19         -2.6860    -1.0070    -0.5620 c          1 7RY       0.675100
     25 O20         -3.1200    -1.7720     0.2780 o          1 7RY      -0.573100
     26 C23         -4.3500     1.1110     1.0080 c6         1 7RY      -0.066733
     27 C25         -6.0700     2.9250     0.9140 c6         1 7RY      -0.068733
     28 C27         -5.1890     1.9140    -1.1900 c6         1 7RY      -0.066733
     29 C29         -7.0610     0.2380     0.2880 c6         1 7RY      -0.057033
     30 C30         -6.6980     0.6440     1.7190 c6         1 7RY      -0.068733
     31 C31         -5.8260    -0.3540    -0.3940 c6         1 7RY      -0.066733
     32 H1           5.3770     0.6220    -1.0430 h1         1 7RY       0.046700
     33 H2           5.0120     1.0880     0.6160 h1         1 7RY       0.046700
     34 H3           7.2190     2.1660     0.6980 hn         1 7RY       0.368800
     35 H5           9.2800     1.0430     1.3820 h1         1 7RY       0.037700
     36 H6           9.4810     0.6310    -0.3130 h1         1 7RY       0.037700
     37 H7          -1.8750    -3.7660    -0.9060 ha         1 7RY       0.149000
     38 H8          -3.7500    -0.1600    -2.1750 hc         1 7RY       0.055700
     39 H9          -2.7550     0.9850    -1.3150 hc         1 7RY       0.055700
     40 H10         -5.3300     1.9890     2.7120 hc         1 7RY       0.048700
     41 H11         -6.7540     3.3880    -1.0820 hc         1 7RY       0.048700
     42 H12         -8.4380     1.8830    -0.0130 hc         1 7RY       0.039533
     43 H13         -7.8230     1.1840    -1.5040 hc         1 7RY       0.039533
     44 H14         -0.2020    -5.4740    -0.3310 ha         1 7RY       0.134000
     45 H15          2.1490    -4.8540     0.0860 ha         1 7RY       0.147000
     46 H16          0.5900     0.4040    -0.6250 ha         1 7RY       0.127000
     47 H17          2.9270     0.9070    -0.2100 ha         1 7RY       0.141000
     48 H18          5.3940    -1.7820     0.2620 hn         1 7RY       0.438800
     49 H19          7.0400    -0.1450     1.4030 h1         1 7RY       0.037200
     50 H20          7.4050    -0.5780    -0.2620 h1         1 7RY       0.037200
     51 H21         10.8130     2.5570     0.1830 h1         1 7RY       0.028700
     52 H22          9.5290     2.9960    -0.9480 h1         1 7RY       0.028700
     53 H23          9.5940     4.5170     0.7550 ho         1 7RY       0.407000
     54 H24         -1.1260    -0.4300    -1.7340 hn         1 7RY       0.316500
     55 H25         -3.9810     0.2630     1.5890 hc         1 7RY       0.044200
     56 H26         -3.5450     1.8560     0.9870 hc         1 7RY       0.044200
     57 H27         -6.9420     3.3670     1.4080 hc         1 7RY       0.039533
     58 H28         -5.2910     3.6940     0.9020 hc         1 7RY       0.039533
     59 H29         -4.3920     2.6650    -1.2400 hc         1 7RY       0.044200
     60 H30         -5.4230     1.6390    -2.2250 hc         1 7RY       0.044200
     61 H31         -7.8540    -0.5160     0.3120 hc         1 7RY       0.048700
     62 H32         -6.3660    -0.2330     2.2850 hc         1 7RY       0.039533
     63 H33         -7.5800     1.0380     2.2360 hc         1 7RY       0.039533
     64 H34         -6.0740    -0.6580    -1.4180 hc         1 7RY       0.044200
     65 H35         -5.5120    -1.2540     0.1360 hc         1 7RY       0.044200
@<TRIPOS>BOND
     1     1    18 1   
     2     1    19 1   
     3     1    32 1   
     4     1    33 1   
     5     2     3 1   
     6     2    19 1   
     7     2    34 1   
     8     3    20 1   
     9     3    35 1   
    10     3    36 1   
    11     4    10 ar  
    12     4    22 ar  
    13     4    37 1   
    14     5     6 1   
    15     5    24 1   
    16     5    38 1   
    17     5    39 1   
    18     6    26 1   
    19     6    28 1   
    20     6    31 1   
    21     7    26 1   
    22     7    27 1   
    23     7    30 1   
    24     7    40 1   
    25     8     9 1   
    26     8    27 1   
    27     8    28 1   
    28     8    41 1   
    29     9    29 1   
    30     9    42 1   
    31     9    43 1   
    32    10    11 ar  
    33    10    44 1   
    34    11    12 ar  
    35    11    45 1   
    36    12    13 ar  
    37    12    17 ar  
    38    13    14 ar  
    39    13    22 ar  
    40    14    15 ar  
    41    14    46 1   
    42    15    16 ar  
    43    15    47 1   
    44    16    17 ar  
    45    16    18 1   
    46    18    48 1   
    47    19    49 1   
    48    19    50 1   
    49    20    21 1   
    50    20    51 1   
    51    20    52 1   
    52    21    53 1   
    53    22    23 1   
    54    23    24 1   
    55    23    54 1   
    56    24    25 2   
    57    26    55 1   
    58    26    56 1   
    59    27    57 1   
    60    27    58 1   
    61    28    59 1   
    62    28    60 1   
    63    29    30 1   
    64    29    31 1   
    65    29    61 1   
    66    30    62 1   
    67    30    63 1   
    68    31    64 1   
    69    31    65 1   
@<TRIPOS>SUBSTRUCTURE
     1 7RY         1 TEMP              0 ****  ****    0 ROOT
