@<TRIPOS>MOLECULE
7RY
   65    69     1     0     0
SMALL
No Charge or Current Charge


@<TRIPOS>ATOM
      1 C10          5.4770     0.4050    -0.0780 c3         1 7RY       0.226800
      2 N12          7.8140     1.3520    -0.0870 n7         1 7RY      -0.862400
      3 C13          9.2440     1.2500     0.2880 c3         1 7RY       0.160800
      4 C17         -1.0810    -3.2170    -0.0780 ca         1 7RY      -0.132000
      5 C21         -3.6060     0.2150    -1.8040 c3         1 7RY      -0.149400
      6 C22         -4.7230     0.6390    -0.7890 c6         1 7RY      -0.027000
      7 C24         -5.2610     1.2080     1.6560 c6         1 7RY      -0.057033
      8 C26         -6.3870     2.5110    -0.2130 c6         1 7RY      -0.057033
      9 C28         -7.5550     1.4840    -0.2270 c6         1 7RY      -0.068733
     10 C01         -0.1420    -4.1300     0.4210 ca         1 7RY      -0.073000
     11 C02          1.1940    -3.7400     0.5880 ca         1 7RY      -0.119000
     12 C03          1.6130    -2.4390     0.2690 ca         1 7RY       0.344000
     13 C04          0.6570    -1.5130    -0.2390 ca         1 7RY      -0.152000
     14 C05          1.0950    -0.2060    -0.5570 ca         1 7RY      -0.032000
     15 C06          2.4430     0.1120    -0.3560 ca         1 7RY      -0.210000
     16 C07          3.2930    -0.8760     0.1460 ca         1 7RY       0.634900
     17 N08          2.9120    -2.1100     0.4550 nb         1 7RY      -0.771000
     18 N09          4.6210    -0.6990     0.3930 nu         1 7RY      -0.937100
     19 C11          6.9550     0.2370     0.3790 c3         1 7RY       0.143800
     20 C14         10.0170     2.5500    -0.0680 c3         1 7RY       0.158600
     21 O15          9.4270     3.6930     0.5830 oh         1 7RY      -0.670000
     22 C16         -0.6950    -1.9040    -0.4230 ca         1 7RY       0.001000
     23 N18         -1.6400    -0.9600    -0.9130 ns         1 7RY      -0.176000
     24 C19         -2.8990    -1.1130    -1.4790 c          1 7RY       0.608100
     25 O20         -3.3980    -2.1980    -1.7540 o          1 7RY      -0.573100
     26 C23         -4.1530     0.7440     0.6660 c6         1 7RY      -0.066733
     27 C25         -5.7930     2.6030     1.2210 c6         1 7RY      -0.068733
     28 C27         -5.2790     2.0430    -1.2000 c6         1 7RY      -0.066733
     29 C29         -7.0250     0.0880     0.2060 c6         1 7RY      -0.057033
     30 C30         -6.4300     0.1820     1.6410 c6         1 7RY      -0.068733
     31 C31         -5.9160    -0.3760    -0.7820 c6         1 7RY      -0.066733
     32 H1           5.4490     0.4520    -1.1750 h1         1 7RY       0.046700
     33 H2           5.0940     1.3600     0.3080 h1         1 7RY       0.046700
     34 H3           7.4700     2.2290     0.3280 hn         1 7RY       0.424000
     35 H5           9.3440     1.0750     1.3680 h1         1 7RY       0.037700
     36 H6           9.7160     0.4020    -0.2270 h1         1 7RY       0.037700
     37 H7          -2.1120    -3.5440    -0.1740 ha         1 7RY       0.131000
     38 H8          -4.0490     0.1230    -2.8030 hc         1 7RY       0.055700
     39 H9          -2.8520     1.0110    -1.8230 hc         1 7RY       0.055700
     40 H10         -4.8440     1.2750     2.6700 hc         1 7RY       0.048700
     41 H11         -6.7620     3.4970    -0.5210 hc         1 7RY       0.048700
     42 H12         -8.3570     1.8120     0.4490 hc         1 7RY       0.039533
     43 H13         -7.9990     1.4270    -1.2300 hc         1 7RY       0.039533
     44 H14         -0.4510    -5.1400     0.6830 ha         1 7RY       0.116000
     45 H15          1.9150    -4.4540     0.9770 ha         1 7RY       0.129000
     46 H16          0.4230     0.5520    -0.9520 ha         1 7RY       0.109000
     47 H17          2.8170     1.1040    -0.5850 ha         1 7RY       0.123000
     48 H18          5.0650    -1.5620     0.6930 hn         1 7RY       0.494000
     49 H19          6.9780     0.1760     1.4760 h1         1 7RY       0.037200
     50 H20          7.3340    -0.7170    -0.0120 h1         1 7RY       0.037200
     51 H21         11.0640     2.4340     0.2410 h1         1 7RY       0.028700
     52 H22         10.0050     2.6850    -1.1580 h1         1 7RY       0.028700
     53 H23          9.9430     4.4800     0.2990 ho         1 7RY       0.446000
     54 H24         -1.3520     0.0030    -0.8030 hn         1 7RY       0.150000
     55 H25         -3.7560    -0.2250     0.9980 hc         1 7RY       0.044200
     56 H26         -3.3100     1.4480     0.6960 hc         1 7RY       0.044200
     57 H27         -6.5590     2.9550     1.9270 hc         1 7RY       0.039533
     58 H28         -4.9820     3.3440     1.2490 hc         1 7RY       0.039533
     59 H29         -4.4680     2.7840    -1.2200 hc         1 7RY       0.044200
     60 H30         -5.6840     2.0070    -2.2210 hc         1 7RY       0.044200
     61 H31         -7.8510    -0.6370     0.1980 hc         1 7RY       0.048700
     62 H32         -6.0740    -0.8040     1.9690 hc         1 7RY       0.039533
     63 H33         -7.2090     0.4830     2.3550 hc         1 7RY       0.039533
     64 H34         -6.3350    -0.4780    -1.7930 hc         1 7RY       0.044200
     65 H35         -5.5730    -1.3770    -0.4890 hc         1 7RY       0.044200
@<TRIPOS>BOND
     1     1    18 1   
     2     1    19 1   
     3     1    32 1   
     4     1    33 1   
     5     2     3 1   
     6     2    19 1   
     7     2    34 1   
     8     3    20 1   
     9     3    35 1   
    10     3    36 1   
    11     4    10 ar  
    12     4    22 ar  
    13     4    37 1   
    14     5     6 1   
    15     5    24 1   
    16     5    38 1   
    17     5    39 1   
    18     6    26 1   
    19     6    28 1   
    20     6    31 1   
    21     7    26 1   
    22     7    27 1   
    23     7    30 1   
    24     7    40 1   
    25     8     9 1   
    26     8    27 1   
    27     8    28 1   
    28     8    41 1   
    29     9    29 1   
    30     9    42 1   
    31     9    43 1   
    32    10    11 ar  
    33    10    44 1   
    34    11    12 ar  
    35    11    45 1   
    36    12    13 ar  
    37    12    17 ar  
    38    13    14 ar  
    39    13    22 ar  
    40    14    15 ar  
    41    14    46 1   
    42    15    16 ar  
    43    15    47 1   
    44    16    17 ar  
    45    16    18 1   
    46    18    48 1   
    47    19    49 1   
    48    19    50 1   
    49    20    21 1   
    50    20    51 1   
    51    20    52 1   
    52    21    53 1   
    53    22    23 1   
    54    23    24 1   
    55    23    54 1   
    56    24    25 2   
    57    26    55 1   
    58    26    56 1   
    59    27    57 1   
    60    27    58 1   
    61    28    59 1   
    62    28    60 1   
    63    29    30 1   
    64    29    31 1   
    65    29    61 1   
    66    30    62 1   
    67    30    63 1   
    68    31    64 1   
    69    31    65 1   
@<TRIPOS>SUBSTRUCTURE
     1 7RY         1 TEMP              0 ****  ****    0 ROOT
