@<TRIPOS>MOLECULE
7S0
   54    57     1     0     0
SMALL
No Charge or Current Charge


@<TRIPOS>ATOM
      1 C11        -18.2690    -1.3630    11.7140 ca         1 7S0      -0.229000
      2 C10        -18.2180    -3.6300     9.9140 c3         1 7S0       0.148900
      3 C12        -18.2720    -0.2990    12.6240 ca         1 7S0       0.185100
      4 C14        -19.5950     1.1660    14.1040 c3         1 7S0       0.147900
      5 C15        -17.0550     0.3070    12.9890 ca         1 7S0      -0.226000
      6 C21         -9.8390     0.1080    14.8340 cc         1 7S0      -0.192000
      7 C02        -10.8500     1.5260    11.5510 c          1 7S0       0.620600
      8 C04        -12.5750    -0.1600    11.3260 cc         1 7S0       0.737800
      9 C07        -15.8400    -1.2100    11.5040 ca         1 7S0      -0.193300
     10 C08        -17.0600    -1.8300    11.1570 ca         1 7S0       0.176100
     11 C16        -15.8490    -0.1500    12.4360 ca         1 7S0      -0.010000
     12 C18        -11.3150    -0.2170    13.1430 cc         1 7S0       0.180400
     13 C19        -10.5670     0.8500    12.8250 cd         1 7S0      -0.298600
     14 C20         -9.6370     1.0670    13.8650 cd         1 7S0      -0.079000
     15 C24        -12.9560    -1.7130    15.3920 c          1 7S0       0.590100
     16 C26        -15.1790    -2.7920    14.6750 ca         1 7S0       0.031000
     17 C27        -16.0930    -2.0010    15.4030 ca         1 7S0      -0.183000
     18 C28        -17.4660    -2.2920    15.3460 ca         1 7S0       0.352900
     19 C30        -17.1040    -4.0640    13.9050 ca         1 7S0       0.370900
     20 C31        -15.7120    -3.8450    13.9030 ca         1 7S0      -0.005000
     21 N03        -11.8860     0.9330    10.8760 ns         1 7S0      -0.454400
     22 N05        -13.6110    -0.6100    10.5810 nu         1 7S0      -0.883400
     23 N17        -12.2970    -0.7610    12.4670 nd         1 7S0      -0.723100
     24 N22        -10.8980    -0.6980    14.3830 na         1 7S0       0.012000
     25 N25        -13.7710    -2.5860    14.6810 ns         1 7S0      -0.152000
     26 N29        -17.9750    -3.3120    14.6200 nb         1 7S0      -0.678000
     27 O01        -10.2520     2.5020    11.1270 o          1 7S0      -0.553000
     28 O09        -17.0330    -2.9010    10.2840 os         1 7S0      -0.371100
     29 O13        -19.4860     0.1050    13.1390 os         1 7S0      -0.349100
     30 O33        -13.3730    -0.9020    16.2120 o          1 7S0      -0.535100
     31 Cl32       -14.6600    -4.8990    12.9520 cl         1 7S0      -0.197000
     32 H111       -19.2200    -1.8190    11.4630 ha         1 7S0       0.133000
     33 H101       -17.9630    -4.4440     9.2240 h1         1 7S0       0.046033
     34 H103       -18.6960    -4.0720    10.7980 h1         1 7S0       0.046033
     35 H102       -18.9400    -2.9730     9.4120 h1         1 7S0       0.046033
     36 H142       -20.6450     1.3210    14.3810 h1         1 7S0       0.045700
     37 H141       -19.0350     0.9240    15.0160 h1         1 7S0       0.045700
     38 H143       -19.2100     2.1090    13.6930 h1         1 7S0       0.045700
     39 H151       -17.0210     1.1260    13.7000 ha         1 7S0       0.123000
     40 H211        -9.3330    -0.0610    15.7770 h4         1 7S0       0.148000
     41 H061       -14.7110    -2.3000    10.0050 h1         1 7S0       0.067700
     42 H062       -14.0560    -2.4080    11.6320 h1         1 7S0       0.067700
     43 H161       -14.9210     0.3240    12.7430 ha         1 7S0       0.115000
     44 H201        -8.8910     1.8570    13.9000 ha         1 7S0       0.147000
     45 H231       -11.2960    -2.7570    14.4880 h1         1 7S0       0.081700
     46 H232       -10.9370    -1.9910    16.0490 h1         1 7S0       0.081700
     47 H271       -15.7740    -1.1620    16.0110 ha         1 7S0       0.161000
     48 H281       -18.1820    -1.6910    15.9040 h4         1 7S0       0.028100
     49 H301       -17.5350    -4.8750    13.3200 h4         1 7S0       0.036100
     50 H031       -12.1380     1.3480     9.9950 hn         1 7S0       0.322500
     51 H051       -13.8230    -0.0580     9.7570 hn         1 7S0       0.494000
     52 H251       -13.2720    -3.1900    14.0410 hn         1 7S0       0.166000
     53 C06        -14.5210    -1.7170    10.9160 c3         1 7S0       0.298100
     54 C23        -11.4590    -1.8590    15.0950 c3         1 7S0       0.008600
@<TRIPOS>BOND
     1     1     3 ar  
     2     1    10 ar  
     3     1    32 1   
     4     2    28 1   
     5     2    33 1   
     6     2    34 1   
     7     2    35 1   
     8     3     5 ar  
     9     3    29 1   
    10     4    29 1   
    11     4    36 1   
    12     4    37 1   
    13     4    38 1   
    14     5    11 ar  
    15     5    39 1   
    16     6    14 2   
    17     6    24 1   
    18     6    40 1   
    19     7    13 1   
    20     7    21 1   
    21     7    27 2   
    22     8    21 1   
    23     8    22 1   
    24     8    23 2   
    25     9    10 ar  
    26     9    11 ar  
    27     9    53 1   
    28    10    28 1   
    29    11    43 1   
    30    12    13 2   
    31    12    23 1   
    32    12    24 1   
    33    13    14 1   
    34    14    44 1   
    35    15    25 1   
    36    15    30 2   
    37    15    54 1   
    38    16    17 ar  
    39    16    20 ar  
    40    16    25 1   
    41    17    18 ar  
    42    17    47 1   
    43    18    26 ar  
    44    18    48 1   
    45    19    20 ar  
    46    19    26 ar  
    47    19    49 1   
    48    20    31 1   
    49    21    50 1   
    50    22    51 1   
    51    22    53 1   
    52    24    54 1   
    53    25    52 1   
    54    41    53 1   
    55    42    53 1   
    56    45    54 1   
    57    46    54 1   
@<TRIPOS>SUBSTRUCTURE
     1 7S0         1 TEMP              0 ****  ****    0 ROOT
