@<TRIPOS>MOLECULE
7S0
   54    57     1     0     0
SMALL
abcg2


@<TRIPOS>ATOM
      1 C11        -17.7080    -0.8900    10.8970 ca         1 7S0      -0.229000
      2 C10        -17.1590    -0.6440     8.1490 c3         1 7S0       0.148900
      3 C12        -17.9520    -1.0510    12.2660 ca         1 7S0       0.185100
      4 C14        -19.3850    -0.5790    14.1190 c3         1 7S0       0.147900
      5 C15        -17.0520    -1.7490    13.0640 ca         1 7S0      -0.226000
      6 C21        -10.4470     0.4810    14.3090 cc         1 7S0      -0.192000
      7 C02        -11.1750     1.0220    10.7660 c          1 7S0       0.620600
      8 C04        -12.6890    -0.9360    10.7330 cc         1 7S0       0.737800
      9 C07        -15.6300    -2.1310    11.1250 ca         1 7S0      -0.193300
     10 C08        -16.5600    -1.4290    10.3350 ca         1 7S0       0.176100
     11 C16        -15.9020    -2.2750    12.4740 ca         1 7S0      -0.010000
     12 C18        -11.6520    -0.4190    12.6470 cc         1 7S0       0.180400
     13 C19        -10.9690     0.6910    12.1360 cd         1 7S0      -0.298600
     14 C20        -10.2040     1.2530    13.2080 cd         1 7S0      -0.079000
     15 C24        -13.3180    -1.1050    15.2780 c          1 7S0       0.590100
     16 C26        -15.3490    -2.1360    16.2500 ca         1 7S0       0.031000
     17 C27        -15.9970    -0.9780    16.6890 ca         1 7S0      -0.183000
     18 C28        -17.2880    -1.0740    17.1800 ca         1 7S0       0.352900
     19 C30        -17.3630    -3.3270    16.8550 ca         1 7S0       0.370900
     20 C31        -16.0730    -3.3320    16.3490 ca         1 7S0      -0.005000
     21 N03        -12.0660     0.1360    10.1370 ns         1 7S0      -0.454400
     22 N05        -13.4810    -1.6970     9.9440 nu         1 7S0      -0.883400
     23 N17        -12.5070    -1.2380    12.0000 nd         1 7S0      -0.723100
     24 N22        -11.3210    -0.5470    13.9630 na         1 7S0       0.012000
     25 N25        -14.0570    -2.1590    15.7440 ns         1 7S0      -0.152000
     26 N29        -17.9750    -2.2170    17.2660 nb         1 7S0      -0.678000
     27 O01        -10.6860     1.9520    10.1200 o          1 7S0      -0.553000
     28 O09        -16.2500    -1.3240     9.0130 os         1 7S0      -0.371100
     29 O13        -19.1040    -0.4880    12.7230 os         1 7S0      -0.349100
     30 O33        -13.7150     0.0420    15.2160 o          1 7S0      -0.535100
     31 CL32       -15.3730    -4.8380    15.8200 cl         1 7S0      -0.197000
     32 H111       -18.4310    -0.3460    10.3060 ha         1 7S0       0.133000
     33 H101       -16.7180    -0.6920     7.1570 h1         1 7S0       0.046033
     34 H103       -18.1340    -1.1360     8.1430 h1         1 7S0       0.046033
     35 H102       -17.2780     0.3990     8.4490 h1         1 7S0       0.046033
     36 H142       -20.3330    -0.0680    14.2670 h1         1 7S0       0.045700
     37 H141       -19.4740    -1.6200    14.4370 h1         1 7S0       0.045700
     38 H143       -18.6060    -0.0860    14.7060 h1         1 7S0       0.045700
     39 H151       -17.2270    -1.8860    14.1180 ha         1 7S0       0.123000
     40 H211       -10.0750     0.5530    15.3170 h4         1 7S0       0.148000
     41 H061       -14.6430    -3.3680     9.6720 h1         1 7S0       0.067700
     42 H062       -13.8390    -3.2860    11.2380 h1         1 7S0       0.067700
     43 H161       -15.1940    -2.8140    13.0920 ha         1 7S0       0.115000
     44 H201        -9.5560     2.1120    13.1650 ha         1 7S0       0.147000
     45 H231       -11.9210    -2.4920    14.3780 h1         1 7S0       0.081700
     46 H232       -11.2900    -1.5850    15.7530 h1         1 7S0       0.081700
     47 H271       -15.5000    -0.0250    16.6390 ha         1 7S0       0.161000
     48 H281       -17.7950    -0.1780    17.5200 h4         1 7S0       0.028100
     49 H301       -17.9130    -4.2590    16.9190 h4         1 7S0       0.036100
     50 H031       -12.2460     0.3270     9.1600 hn         1 7S0       0.322500
     51 H051       -13.7570    -1.3100     9.0550 hn         1 7S0       0.494000
     52 H251       -13.6510    -3.0780    15.6330 hn         1 7S0       0.166000
     53 C06        -14.3840    -2.7050    10.4980 c3         1 7S0       0.298100
     54 C23        -11.9050    -1.5110    14.8540 c3         1 7S0       0.008600
@<TRIPOS>BOND
     1     1     3 ar  
     2     1    10 ar  
     3     1    32 1   
     4     2    28 1   
     5     2    33 1   
     6     2    34 1   
     7     2    35 1   
     8     3     5 ar  
     9     3    29 1   
    10     4    29 1   
    11     4    36 1   
    12     4    37 1   
    13     4    38 1   
    14     5    11 ar  
    15     5    39 1   
    16     6    14 2   
    17     6    24 1   
    18     6    40 1   
    19     7    13 1   
    20     7    21 1   
    21     7    27 2   
    22     8    21 1   
    23     8    22 1   
    24     8    23 2   
    25     9    10 ar  
    26     9    11 ar  
    27     9    53 1   
    28    10    28 1   
    29    11    43 1   
    30    12    13 2   
    31    12    23 1   
    32    12    24 1   
    33    13    14 1   
    34    14    44 1   
    35    15    25 1   
    36    15    30 2   
    37    15    54 1   
    38    16    17 ar  
    39    16    20 ar  
    40    16    25 1   
    41    17    18 ar  
    42    17    47 1   
    43    18    26 ar  
    44    18    48 1   
    45    19    20 ar  
    46    19    26 ar  
    47    19    49 1   
    48    20    31 1   
    49    21    50 1   
    50    22    51 1   
    51    22    53 1   
    52    24    54 1   
    53    25    52 1   
    54    41    53 1   
    55    42    53 1   
    56    45    54 1   
    57    46    54 1   
@<TRIPOS>SUBSTRUCTURE
     1 7S0         1 TEMP              0 ****  ****    0 ROOT
