@<TRIPOS>MOLECULE
7S1
   41    43     1     0     0
SMALL
abcg2


@<TRIPOS>ATOM
      1 C10          0.2290     0.4950     0.0010 c2         1 7S1       0.890100
      2 C15         -1.9330     0.6440    -0.9010 ca         1 7S1       0.194400
      3 C17         -4.0260     1.8060    -1.2690 ca         1 7S1      -0.084000
      4 C20         -2.6680    -0.4810    -0.4170 ca         1 7S1      -0.102000
      5 C21         -2.0590    -1.6920    -0.0210 ca         1 7S1      -0.057000
      6 C22         -2.8340    -2.7130     0.4510 ca         1 7S1      -0.177000
      7 C01          2.7390     2.1390     0.8230 c3         1 7S1      -0.121100
      8 C02          2.6260     0.6210     0.7160 c3         1 7S1       0.287800
      9 C03          3.9050    -0.0100     0.2140 ca         1 7S1      -0.104300
     10 C04          4.4440     0.3580    -1.0170 ca         1 7S1      -0.096000
     11 C05          5.6150    -0.2270    -1.4780 ca         1 7S1      -0.107500
     12 C06          6.2670    -1.1830    -0.7090 ca         1 7S1      -0.097000
     13 C07          5.7400    -1.5510     0.5210 ca         1 7S1      -0.107500
     14 C08          4.5630    -0.9690     0.9760 ca         1 7S1      -0.096000
     15 N09          1.5360     0.1980    -0.1670 nu         1 7S1      -0.908400
     16 N11         -0.1570     0.6090     1.3440 nu         1 7S1      -0.772000
     17 C12         -1.2250     1.2690     1.7650 c1         1 7S1       0.445800
     18 N13         -2.1290     1.8450     2.1930 n1         1 7S1      -0.466000
     19 N14         -0.5490     0.6180    -1.0020 ne         1 7S1      -0.718100
     20 C16         -2.6250     1.7480    -1.3460 ca         1 7S1      -0.117000
     21 C18         -4.7490     0.7620    -0.7610 ca         1 7S1      -0.095000
     22 C19         -4.0840    -0.4060    -0.3320 ca         1 7S1       0.284000
     23 C23         -4.2280    -2.5240     0.5230 ca         1 7S1       0.353900
     24 N24         -4.8330    -1.4310     0.1450 nb         1 7S1      -0.663000
     25 H1          -4.5330     2.6990    -1.6130 ha         1 7S1       0.116000
     26 H2          -0.9880    -1.8230    -0.1040 ha         1 7S1       0.118000
     27 H3          -2.4010    -3.6530     0.7620 ha         1 7S1       0.120000
     28 H4           2.9470     2.5910    -0.1470 hc         1 7S1       0.050367
     29 H5           1.8190     2.5780     1.2100 hc         1 7S1       0.050367
     30 H6           3.5460     2.4060     1.5050 hc         1 7S1       0.050367
     31 H7           2.4430     0.2140     1.7140 h1         1 7S1       0.052700
     32 H8           3.9570     1.1090    -1.6280 ha         1 7S1       0.113500
     33 H9           6.0200     0.0670    -2.4380 ha         1 7S1       0.118000
     34 H10          7.1820    -1.6360    -1.0670 ha         1 7S1       0.117000
     35 H11          6.2420    -2.2930     1.1270 ha         1 7S1       0.118000
     36 H12          4.1540    -1.2630     1.9350 ha         1 7S1       0.113500
     37 H13          1.7780     0.0650    -1.1380 hn         1 7S1       0.506000
     38 H14          0.4120     0.1800     2.0630 hn         1 7S1       0.517000
     39 H15         -2.0730     2.5920    -1.7380 ha         1 7S1       0.122000
     40 H16         -5.8290     0.8020    -0.6900 ha         1 7S1       0.132000
     41 H17         -4.8560    -3.3240     0.9030 h4         1 7S1       0.016100
@<TRIPOS>BOND
     1     1    15 1   
     2     1    16 1   
     3     1    19 2   
     4     2     4 ar  
     5     2    19 1   
     6     2    20 ar  
     7     3    20 ar  
     8     3    21 ar  
     9     3    25 1   
    10     4     5 ar  
    11     4    22 ar  
    12     5     6 ar  
    13     5    26 1   
    14     6    23 ar  
    15     6    27 1   
    16     7     8 1   
    17     7    28 1   
    18     7    29 1   
    19     7    30 1   
    20     8     9 1   
    21     8    15 1   
    22     8    31 1   
    23     9    10 ar  
    24     9    14 ar  
    25    10    11 ar  
    26    10    32 1   
    27    11    12 ar  
    28    11    33 1   
    29    12    13 ar  
    30    12    34 1   
    31    13    14 ar  
    32    13    35 1   
    33    14    36 1   
    34    15    37 1   
    35    16    17 1   
    36    16    38 1   
    37    17    18 3   
    38    20    39 1   
    39    21    22 ar  
    40    21    40 1   
    41    22    24 ar  
    42    23    24 ar  
    43    23    41 1   
@<TRIPOS>SUBSTRUCTURE
     1 7S1         1 TEMP              0 ****  ****    0 ROOT
