@<TRIPOS>MOLECULE
7S1
   41    43     1     0     0
SMALL
No Charge or Current Charge


@<TRIPOS>ATOM
      1 C10          0.3750     0.7450    -0.3700 c2         1 7S1       0.890100
      2 C15         -1.9690     0.8610    -0.0650 ca         1 7S1       0.194400
      3 C17         -3.6400     1.4580     1.6040 ca         1 7S1      -0.084000
      4 C20         -2.6830    -0.3290    -0.3560 ca         1 7S1      -0.102000
      5 C21         -2.2330    -1.2400    -1.3370 ca         1 7S1      -0.057000
      6 C22         -2.9830    -2.4010    -1.5700 ca         1 7S1      -0.177000
      7 C01          3.3970     1.9910    -2.0660 c3         1 7S1      -0.121100
      8 C02          2.6640     1.4920    -0.8090 c3         1 7S1       0.287800
      9 C03          3.5140     0.5200     0.0100 ca         1 7S1      -0.104300
     10 C04          3.9620    -0.6980    -0.5470 ca         1 7S1      -0.096000
     11 C05          4.7150    -1.5980     0.2250 ca         1 7S1      -0.107500
     12 C06          5.0260    -1.2920     1.5600 ca         1 7S1      -0.097000
     13 C07          4.5810    -0.0840     2.1230 ca         1 7S1      -0.107500
     14 C08          3.8280     0.8170     1.3520 ca         1 7S1      -0.096000
     15 N09          1.4080     0.8550    -1.2070 nu         1 7S1      -0.908400
     16 N11          0.6200    -0.2900     0.4300 nu         1 7S1      -0.772000
     17 C12          0.3360    -0.3120     1.7220 c1         1 7S1       0.445800
     18 N13          0.1280    -0.3610     2.8610 n1         1 7S1      -0.466000
     19 N14         -0.7700     1.1960    -0.7260 ne         1 7S1      -0.718100
     20 C16         -2.4580     1.7480     0.9080 ca         1 7S1      -0.117000
     21 C18         -4.3410     0.2760     1.3240 ca         1 7S1      -0.095000
     22 C19         -3.8810    -0.6280     0.3490 ca         1 7S1       0.284000
     23 C23         -4.1510    -2.6200    -0.8280 ca         1 7S1       0.353900
     24 N24         -4.5950    -1.7550     0.1110 nb         1 7S1      -0.663000
     25 H1          -4.0110     2.1470     2.3600 ha         1 7S1       0.116000
     26 H2          -1.3260    -1.0620    -1.9100 ha         1 7S1       0.118000
     27 H3          -2.6680    -3.1260    -2.3160 ha         1 7S1       0.120000
     28 H4           3.6070     1.1690    -2.7590 hc         1 7S1       0.050367
     29 H5           2.7950     2.7420    -2.5920 hc         1 7S1       0.050367
     30 H6           4.3500     2.4560    -1.7870 hc         1 7S1       0.050367
     31 H7           2.4400     2.3740    -0.1920 h1         1 7S1       0.052700
     32 H8           3.7200    -0.9510    -1.5770 ha         1 7S1       0.113500
     33 H9           5.0570    -2.5350    -0.2110 ha         1 7S1       0.118000
     34 H10          5.6090    -1.9890     2.1580 ha         1 7S1       0.117000
     35 H11          4.8190     0.1530     3.1580 ha         1 7S1       0.118000
     36 H12          3.4840     1.7470     1.8020 ha         1 7S1       0.113500
     37 H13          1.0500     1.1840    -2.0960 hn         1 7S1       0.506000
     38 H14          1.5320    -0.6280     0.1690 hn         1 7S1       0.517000
     39 H15         -1.9150     2.6640     1.1280 ha         1 7S1       0.122000
     40 H16         -5.2560     0.0550     1.8670 ha         1 7S1       0.132000
     41 H17         -4.7530    -3.5140    -0.9900 h4         1 7S1       0.016100
@<TRIPOS>BOND
     1     1    15 1   
     2     1    16 1   
     3     1    19 2   
     4     2     4 ar  
     5     2    19 1   
     6     2    20 ar  
     7     3    20 ar  
     8     3    21 ar  
     9     3    25 1   
    10     4     5 ar  
    11     4    22 ar  
    12     5     6 ar  
    13     5    26 1   
    14     6    23 ar  
    15     6    27 1   
    16     7     8 1   
    17     7    28 1   
    18     7    29 1   
    19     7    30 1   
    20     8     9 1   
    21     8    15 1   
    22     8    31 1   
    23     9    10 ar  
    24     9    14 ar  
    25    10    11 ar  
    26    10    32 1   
    27    11    12 ar  
    28    11    33 1   
    29    12    13 ar  
    30    12    34 1   
    31    13    14 ar  
    32    13    35 1   
    33    14    36 1   
    34    15    37 1   
    35    16    17 1   
    36    16    38 1   
    37    17    18 3   
    38    20    39 1   
    39    21    22 ar  
    40    21    40 1   
    41    22    24 ar  
    42    23    24 ar  
    43    23    41 1   
@<TRIPOS>SUBSTRUCTURE
     1 7S1         1 TEMP              0 ****  ****    0 ROOT
