@<TRIPOS>MOLECULE
7S2
   70    73     1     0     0
SMALL
No Charge or Current Charge


@<TRIPOS>ATOM
      1 C1          -5.8120    16.0430    -8.5090 c          1 7S2       0.578100
      2 C2          -6.5430    14.6640    -8.7990 c5         1 7S2       0.095500
      3 C4          -4.7310    13.1750    -9.1430 c5         1 7S2       0.149800
      4 C5          -5.0270    13.2130    -7.6000 c5         1 7S2       0.160300
      5 C6          -6.4840    13.7460    -7.5500 c5         1 7S2      -0.162400
      6 C10         -6.0750    18.3920    -6.3450 c5         1 7S2      -0.124400
      7 C11         -7.5130    18.3830    -5.7170 c5         1 7S2       0.044700
      8 C13         -7.5730    19.2670    -8.0470 c5         1 7S2       0.088000
      9 C22         -7.4460    15.0690    -3.8030 c3         1 7S2       0.137300
     10 C23         -6.1040    14.4670    -3.4010 ca         1 7S2      -0.117300
     11 C24         -4.9580    14.6440    -4.2050 ca         1 7S2      -0.100500
     12 C25         -3.7310    14.0690    -3.8330 ca         1 7S2      -0.080500
     13 C30         -1.3200    12.2370    -1.9570 cg         1 7S2      -0.011000
     14 C32          0.9390    11.2130    -1.2520 c1         1 7S2      -0.066100
     15 C35          3.1920    11.5440    -0.1000 cx         1 7S2      -0.116400
     16 N3          -5.9160    13.7740    -9.8300 n7         1 7S2      -0.823400
     17 O7          -4.6120    16.2880    -8.5780 o          1 7S2      -0.586100
     18 N8          -6.7650    16.9990    -8.1990 ns         1 7S2      -0.523900
     19 C9          -6.3160    18.3660    -7.8810 c5         1 7S2       0.109700
     20 N12         -8.3090    19.0850    -6.7690 n          1 7S2      -0.408800
     21 O15        -10.2060    20.0870    -7.5500 o          1 7S2      -0.595100
     22 C16        -10.3660    19.3820    -5.2450 c3         1 7S2      -0.118700
     23 C17        -11.7270    18.6620    -5.4070 c3         1 7S2      -0.087600
     24 C18        -10.5290    20.7590    -4.5590 c3         1 7S2      -0.087600
     25 C26         -3.6360    13.3090    -2.6530 ca         1 7S2       0.041000
     26 C27         -4.7750    13.1280    -1.8490 ca         1 7S2      -0.080500
     27 C28         -6.0030    13.7040    -2.2220 ca         1 7S2      -0.100500
     28 C29         -2.3920    12.7250    -2.2770 ch         1 7S2      -0.101000
     29 C31         -0.1240    11.6930    -1.5890 cg         1 7S2      -0.070000
     30 C33          2.2030    10.6570    -0.8220 cx         1 7S2      -0.040600
     31 C34          2.4590    10.4610     0.6550 cx         1 7S2      -0.116400
     32 O36         -4.9240    11.9340    -6.9760 oh         1 7S2      -0.649000
     33 H1          -7.5830    14.8910    -9.0720 h1         1 7S2       0.082700
     34 H2          -4.5410    12.1530    -9.5010 h1         1 7S2       0.070700
     35 H3          -3.8260    13.7620    -9.3570 h1         1 7S2       0.070700
     36 H4          -4.3430    13.9230    -7.1140 h1         1 7S2       0.027700
     37 H5          -6.7050    14.2840    -6.6230 hc         1 7S2       0.062700
     38 H6          -7.2140    12.9330    -7.6320 hc         1 7S2       0.062700
     39 H7          -5.4330    17.5750    -5.9960 hc         1 7S2       0.072200
     40 H8          -5.5600    19.3210    -6.0730 hc         1 7S2       0.072200
     41 H9          -7.5200    18.9340    -4.7670 h1         1 7S2       0.092700
     42 H10         -7.2830    20.3190    -8.1670 h1         1 7S2       0.070200
     43 H11         -8.1730    18.9830    -8.9220 h1         1 7S2       0.070200
     44 H12         -8.1150    15.1070    -2.9340 h1         1 7S2       0.052200
     45 H13         -7.9140    14.4240    -4.5580 h1         1 7S2       0.052200
     46 H14         -5.0120    15.2290    -5.1200 ha         1 7S2       0.118000
     47 H15         -2.8560    14.2140    -4.4620 ha         1 7S2       0.124500
     48 H17          2.9120    12.5760     0.0970 hc         1 7S2       0.079200
     49 H18         -6.5780    13.0120   -10.0260 hn         1 7S2       0.408000
     50 H20         -7.7320    16.7000    -8.1370 hn         1 7S2       0.315500
     51 H21         -5.4580    18.7050    -8.4790 h1         1 7S2       0.096700
     52 H22         -9.7630    18.7760    -4.5650 hc         1 7S2       0.064700
     53 H23        -12.2030    18.5100    -4.4300 hc         1 7S2       0.040700
     54 H24        -12.4110    19.2470    -6.0340 hc         1 7S2       0.040700
     55 H25        -11.5880    17.6790    -5.8730 hc         1 7S2       0.040700
     56 H26        -10.9950    20.6500    -3.5720 hc         1 7S2       0.040700
     57 H27         -9.5510    21.2380    -4.4220 hc         1 7S2       0.040700
     58 H28        -11.1560    21.4270    -5.1630 hc         1 7S2       0.040700
     59 H29         -6.6320    17.0410    -3.8820 hn         1 7S2       0.313500
     60 H30         -4.7120    12.5410    -0.9350 ha         1 7S2       0.124500
     61 H31         -6.8770    13.5520    -1.5920 ha         1 7S2       0.118000
     62 H32          2.6120     9.9090    -1.4990 hc         1 7S2       0.109700
     63 H33          1.6870    10.7680     1.3570 hc         1 7S2       0.079200
     64 H34          3.0240     9.5820     0.9570 hc         1 7S2       0.079200
     65 H35         -5.1550    12.0630    -6.0300 ho         1 7S2       0.449000
     66 C19         -7.9750    16.9140    -5.4300 c          1 7S2       0.569100
     67 C14         -9.6410    19.5380    -6.6120 c          1 7S2       0.601100
     68 N20         -7.3030    16.4270    -4.3290 ns         1 7S2      -0.491900
     69 O21         -8.8180    16.2720    -6.0420 o          1 7S2      -0.578100
     70 H16          4.2500    11.3930    -0.3040 hc         1 7S2       0.079200
@<TRIPOS>BOND
     1     1     2 1   
     2     1    17 2   
     3     1    18 1   
     4     2     5 1   
     5     2    16 1   
     6     2    33 1   
     7     3     4 1   
     8     3    16 1   
     9     3    34 1   
    10     3    35 1   
    11     4     5 1   
    12     4    32 1   
    13     4    36 1   
    14     5    37 1   
    15     5    38 1   
    16     6     7 1   
    17     6    19 1   
    18     6    39 1   
    19     6    40 1   
    20     7    20 1   
    21     7    41 1   
    22     7    66 1   
    23     8    19 1   
    24     8    20 1   
    25     8    42 1   
    26     8    43 1   
    27     9    10 1   
    28     9    44 1   
    29     9    45 1   
    30     9    68 1   
    31    10    11 ar  
    32    10    27 ar  
    33    11    12 ar  
    34    11    46 1   
    35    12    25 ar  
    36    12    47 1   
    37    13    28 3   
    38    13    29 1   
    39    14    29 3   
    40    14    30 1   
    41    15    30 1   
    42    15    31 1   
    43    15    48 1   
    44    15    70 1   
    45    16    49 1   
    46    18    19 1   
    47    18    50 1   
    48    19    51 1   
    49    20    67 1   
    50    21    67 2   
    51    22    23 1   
    52    22    24 1   
    53    22    52 1   
    54    22    67 1   
    55    23    53 1   
    56    23    54 1   
    57    23    55 1   
    58    24    56 1   
    59    24    57 1   
    60    24    58 1   
    61    25    26 ar  
    62    25    28 1   
    63    26    27 ar  
    64    26    60 1   
    65    27    61 1   
    66    30    31 1   
    67    30    62 1   
    68    31    63 1   
    69    31    64 1   
    70    32    65 1   
    71    59    68 1   
    72    66    68 1   
    73    66    69 2   
@<TRIPOS>SUBSTRUCTURE
     1 7S2         1 TEMP              0 ****  ****    0 ROOT
