@<TRIPOS>MOLECULE
7S2
   70    73     1     0     0
SMALL
abcg2


@<TRIPOS>ATOM
      1 C1          -6.7000    16.2810    -9.5040 c          1 7S2       0.578100
      2 C2          -7.3130    14.9850   -10.0910 c5         1 7S2       0.095500
      3 C4          -5.6050    13.3120    -9.9410 c5         1 7S2       0.149800
      4 C5          -6.4870    13.1230    -8.6960 c5         1 7S2       0.160300
      5 C6          -7.6330    14.0980    -8.8600 c5         1 7S2      -0.162400
      6 C10         -6.2610    18.2030    -7.1620 c5         1 7S2      -0.124400
      7 C11         -7.1750    18.1230    -5.9420 c5         1 7S2       0.044700
      8 C13         -8.3780    19.1350    -7.8300 c5         1 7S2       0.088000
      9 C22         -6.5140    14.4870    -5.0420 c3         1 7S2       0.137300
     10 C23         -5.3420    14.0470    -4.2190 ca         1 7S2      -0.117300
     11 C24         -4.0530    14.1490    -4.7780 ca         1 7S2      -0.100500
     12 C25         -2.9280    13.7010    -4.1300 ca         1 7S2      -0.080500
     13 C30         -1.0110    12.4510    -1.3810 cg         1 7S2      -0.011000
     14 C32          0.8650    11.7870     0.2500 c1         1 7S2      -0.066100
     15 C35          2.8910    12.2130     1.7100 cx         1 7S2      -0.116400
     16 N3          -6.2540    14.3110   -10.8290 n7         1 7S2      -0.823400
     17 O7          -5.5300    16.5940    -9.6860 o          1 7S2      -0.586100
     18 N8          -7.5710    17.1840    -9.0100 ns         1 7S2      -0.523900
     19 C9          -7.1430    18.4540    -8.3780 c5         1 7S2       0.109700
     20 N12         -8.3320    18.8500    -6.4040 n          1 7S2      -0.408800
     21 O15        -10.1760    20.0740    -6.0260 o          1 7S2      -0.595100
     22 C16         -9.2630    18.9220    -4.1000 c3         1 7S2      -0.118700
     23 C17        -10.6940    18.6780    -3.6530 c3         1 7S2      -0.087600
     24 C18         -8.7030    20.0730    -3.3010 c3         1 7S2      -0.087600
     25 C26         -3.0520    13.1210    -2.8630 ca         1 7S2       0.041000
     26 C27         -4.3440    12.9620    -2.3240 ca         1 7S2      -0.080500
     27 C28         -5.4700    13.3930    -2.9780 ca         1 7S2      -0.100500
     28 C29         -1.9420    12.7610    -2.0920 ch         1 7S2      -0.101000
     29 C31          0.0160    12.0890    -0.5590 cg         1 7S2      -0.070000
     30 C33          1.8250    11.2240     1.2620 cx         1 7S2      -0.040600
     31 C34          1.6810    11.9100     2.5980 cx         1 7S2      -0.116400
     32 O36         -6.8660    11.7950    -8.5650 oh         1 7S2      -0.649000
     33 H1          -8.1660    15.2280   -10.6940 h1         1 7S2       0.082700
     34 H2          -5.5460    12.3740   -10.5310 h1         1 7S2       0.070700
     35 H3          -4.5860    13.6660    -9.7570 h1         1 7S2       0.070700
     36 H4          -5.9110    13.4510    -7.8210 h1         1 7S2       0.027700
     37 H5          -7.8320    14.6690    -7.9550 hc         1 7S2       0.062700
     38 H6          -8.5600    13.5960    -9.1430 hc         1 7S2       0.062700
     39 H7          -5.6520    17.3170    -7.2970 hc         1 7S2       0.072200
     40 H8          -5.5640    19.0670    -7.0690 hc         1 7S2       0.072200
     41 H9          -6.7130    18.5170    -5.0780 h1         1 7S2       0.092700
     42 H10         -8.3540    20.2340    -7.9670 h1         1 7S2       0.070200
     43 H11         -9.3310    18.7950    -8.2830 h1         1 7S2       0.070200
     44 H12         -7.4130    14.1960    -4.4760 h1         1 7S2       0.052200
     45 H13         -6.6210    13.9400    -5.9810 h1         1 7S2       0.052200
     46 H14         -4.0290    14.4880    -5.8120 ha         1 7S2       0.118000
     47 H15         -1.9490    13.9340    -4.5070 ha         1 7S2       0.124500
     48 H17          2.9310    13.1680     1.2030 hc         1 7S2       0.079200
     49 H18         -6.6920    13.8370   -11.6210 hn         1 7S2       0.408000
     50 H20         -8.5380    16.9240    -8.8580 hn         1 7S2       0.315500
     51 H21         -6.6520    18.9960    -9.2030 h1         1 7S2       0.096700
     52 H22         -8.6900    18.0240    -4.0090 hc         1 7S2       0.064700
     53 H23        -10.7130    18.4420    -2.5840 hc         1 7S2       0.040700
     54 H24        -11.3770    19.5140    -3.7850 hc         1 7S2       0.040700
     55 H25        -11.1420    17.7520    -4.0790 hc         1 7S2       0.040700
     56 H26         -8.5810    19.8170    -2.2560 hc         1 7S2       0.040700
     57 H27         -7.6600    20.3150    -3.6810 hc         1 7S2       0.040700
     58 H28         -9.2830    21.0040    -3.4440 hc         1 7S2       0.040700
     59 H29         -5.6470    16.3830    -5.0930 hn         1 7S2       0.313500
     60 H30         -4.4240    12.6470    -1.2980 ha         1 7S2       0.124500
     61 H31         -6.4660    13.3510    -2.6100 ha         1 7S2       0.118000
     62 H32          2.0270    10.1820     1.1800 hc         1 7S2       0.109700
     63 H33          0.9540    12.6750     2.8240 hc         1 7S2       0.079200
     64 H34          1.8870    11.2740     3.4540 hc         1 7S2       0.079200
     65 H35         -7.3870    11.6930    -7.7640 ho         1 7S2       0.449000
     66 C19         -7.5210    16.5860    -5.8230 c          1 7S2       0.569100
     67 C14         -9.2950    19.3440    -5.5960 c          1 7S2       0.601100
     68 N20         -6.5270    15.9110    -5.2020 ns         1 7S2      -0.491900
     69 O21         -8.6430    16.1510    -5.9570 o          1 7S2      -0.578100
     70 H16          3.8620    11.7600     1.8420 hc         1 7S2       0.079200
@<TRIPOS>BOND
     1     1     2 1   
     2     1    17 2   
     3     1    18 1   
     4     2     5 1   
     5     2    16 1   
     6     2    33 1   
     7     3     4 1   
     8     3    16 1   
     9     3    34 1   
    10     3    35 1   
    11     4     5 1   
    12     4    32 1   
    13     4    36 1   
    14     5    37 1   
    15     5    38 1   
    16     6     7 1   
    17     6    19 1   
    18     6    39 1   
    19     6    40 1   
    20     7    20 1   
    21     7    41 1   
    22     7    66 1   
    23     8    19 1   
    24     8    20 1   
    25     8    42 1   
    26     8    43 1   
    27     9    10 1   
    28     9    44 1   
    29     9    45 1   
    30     9    68 1   
    31    10    11 ar  
    32    10    27 ar  
    33    11    12 ar  
    34    11    46 1   
    35    12    25 ar  
    36    12    47 1   
    37    13    28 3   
    38    13    29 1   
    39    14    29 3   
    40    14    30 1   
    41    15    30 1   
    42    15    31 1   
    43    15    48 1   
    44    15    70 1   
    45    16    49 1   
    46    18    19 1   
    47    18    50 1   
    48    19    51 1   
    49    20    67 1   
    50    21    67 2   
    51    22    23 1   
    52    22    24 1   
    53    22    52 1   
    54    22    67 1   
    55    23    53 1   
    56    23    54 1   
    57    23    55 1   
    58    24    56 1   
    59    24    57 1   
    60    24    58 1   
    61    25    26 ar  
    62    25    28 1   
    63    26    27 ar  
    64    26    60 1   
    65    27    61 1   
    66    30    31 1   
    67    30    62 1   
    68    31    63 1   
    69    31    64 1   
    70    32    65 1   
    71    59    68 1   
    72    66    68 1   
    73    66    69 2   
@<TRIPOS>SUBSTRUCTURE
     1 7S2         1 TEMP              0 ****  ****    0 ROOT
