@<TRIPOS>MOLECULE
7S4
   65    67     1     0     0
SMALL
bcc


@<TRIPOS>ATOM
      1 C10         -3.4170    -1.0790     1.1440 ca         1 7S4      -0.079300
      2 C13         -5.4810     0.8170     1.1910 ca         1 7S4       0.122100
      3 C15         -3.4860    -0.1390     2.1530 ca         1 7S4      -0.100000
      4 C17         -6.5970     2.6880     2.1140 c3         1 7S4       0.121700
      5 C21          2.5380    -0.6190     0.4720 c2         1 7S4       0.919100
      6 C26          2.2630     1.7600     0.1520 ca         1 7S4       0.176600
      7 C28          1.9950     3.9660     1.0910 ca         1 7S4      -0.110000
      8 C02          1.4920    -3.3970    -1.6030 c3         1 7S4      -0.063000
      9 C03          1.7140    -4.6840    -0.8040 c3         1 7S4      -0.089767
     10 C04          2.8030    -2.9960    -2.2840 c3         1 7S4      -0.089767
     11 C05          1.0280    -2.2220    -0.7110 c3         1 7S4       0.400900
     12 N06         -0.2310    -2.5130    -0.0690 ns         1 7S4      -0.584900
     13 C07         -1.0850    -1.5620     0.3470 c          1 7S4       0.677100
     14 O08         -0.8860    -0.3670     0.1660 o          1 7S4      -0.615100
     15 C09         -2.3020    -2.0780     1.0880 c3         1 7S4      -0.101100
     16 C11         -4.3980    -1.0730     0.1470 ca         1 7S4      -0.177000
     17 C12         -5.4230    -0.1420     0.1590 ca         1 7S4       0.113100
     18 C14         -4.5110     0.8040     2.1790 ca         1 7S4      -0.188000
     19 O16         -6.5090     1.6840     1.1240 os         1 7S4      -0.295900
     20 O18         -6.4070    -0.0680    -0.7570 os         1 7S4      -0.296900
     21 C19         -6.4160    -1.0150    -1.8050 c3         1 7S4       0.122700
     22 N20          2.0550    -1.8530     0.2460 nu         1 7S4      -0.916200
     23 N22          3.6720    -0.3850     1.0970 ne         1 7S4      -0.617700
     24 C23          4.4780    -1.3740     1.3700 cg         1 7S4       0.323800
     25 N24          5.2510    -2.1980     1.6460 n1         1 7S4      -0.464800
     26 N25          1.8190     0.4280     0.0270 nu         1 7S4      -0.739600
     27 C27          1.5930     2.6210     0.9790 ca         1 7S4      -0.142000
     28 C29          3.0730     4.4310     0.3920 ca         1 7S4      -0.168300
     29 C30          3.7770     3.5700    -0.4820 ca         1 7S4       0.407600
     30 C31          3.3570     2.2230    -0.6260 ca         1 7S4      -0.130300
     31 C32          4.0480     1.4240    -1.5620 ca         1 7S4      -0.057000
     32 C33          5.0960     1.9590    -2.2540 ca         1 7S4      -0.255300
     33 C34          5.4570     3.2990    -2.0080 ca         1 7S4       0.422200
     34 N35          4.8280     4.0770    -1.1700 nb         1 7S4      -0.664000
     35 H1          -2.7410    -0.1260     2.9390 ha         1 7S4       0.133000
     36 H2          -7.4680     3.2900     1.8680 h1         1 7S4       0.041033
     37 H3          -6.7320     2.2680     3.1140 h1         1 7S4       0.041033
     38 H4          -5.7140     3.3330     2.1210 h1         1 7S4       0.041033
     39 H5           1.4500     4.6240     1.7540 ha         1 7S4       0.136000
     40 H6          -0.5300    -3.9390    -2.2610 hc         1 7S4       0.042478
     41 H7           0.2600    -2.7220    -3.2640 hc         1 7S4       0.042478
     42 H8           0.7550    -4.4100    -3.3650 hc         1 7S4       0.042478
     43 H9           2.0720    -5.4680    -1.4730 hc         1 7S4       0.042478
     44 H10          2.4720    -4.5710    -0.0260 hc         1 7S4       0.042478
     45 H11          0.8050    -5.0640    -0.3350 hc         1 7S4       0.042478
     46 H12          2.7080    -2.0390    -2.8030 hc         1 7S4       0.042478
     47 H13          3.6310    -2.9150    -1.5780 hc         1 7S4       0.042478
     48 H14          3.0800    -3.7460    -3.0250 hc         1 7S4       0.042478
     49 H15          0.8800    -1.3710    -1.3770 h2         1 7S4       0.089700
     50 H16         -0.4420    -3.4710     0.1630 hn         1 7S4       0.319500
     51 H17         -1.9660    -2.3330     2.0980 hc         1 7S4       0.066200
     52 H18         -2.6360    -3.0160     0.6370 hc         1 7S4       0.066200
     53 H19         -4.3420    -1.8160    -0.6380 ha         1 7S4       0.132000
     54 H20         -4.5330     1.5240     2.9860 ha         1 7S4       0.140000
     55 H21         -5.5140    -0.9560    -2.4200 h1         1 7S4       0.039367
     56 H22         -6.5190    -2.0380    -1.4310 h1         1 7S4       0.039367
     57 H23         -7.2780    -0.7820    -2.4250 h1         1 7S4       0.039367
     58 H24          2.5040    -2.6080     0.7430 hn         1 7S4       0.451800
     59 H25          0.8090     0.2810    -0.0580 hn         1 7S4       0.487800
     60 H26          0.7520     2.2610     1.5590 ha         1 7S4       0.141000
     61 H27          3.4030     5.4570     0.4830 ha         1 7S4       0.150000
     62 H28          3.7400     0.4040    -1.7490 ha         1 7S4       0.135000
     63 H29          5.6430     1.3770    -2.9830 ha         1 7S4       0.140000
     64 H30          6.2960     3.7330    -2.5420 h4         1 7S4       0.017100
     65 C01          0.4280    -3.6280    -2.6790 c3         1 7S4      -0.089767
@<TRIPOS>BOND
     1     1     3 ar  
     2     1    15 1   
     3     1    16 ar  
     4     2    17 ar  
     5     2    18 ar  
     6     2    19 1   
     7     3    18 ar  
     8     3    35 1   
     9     4    19 1   
    10     4    36 1   
    11     4    37 1   
    12     4    38 1   
    13     5    22 1   
    14     5    23 2   
    15     5    26 1   
    16     6    26 1   
    17     6    27 ar  
    18     6    30 ar  
    19     7    27 ar  
    20     7    28 ar  
    21     7    39 1   
    22     8     9 1   
    23     8    10 1   
    24     8    11 1   
    25     8    65 1   
    26     9    43 1   
    27     9    44 1   
    28     9    45 1   
    29    10    46 1   
    30    10    47 1   
    31    10    48 1   
    32    11    12 1   
    33    11    22 1   
    34    11    49 1   
    35    12    13 1   
    36    12    50 1   
    37    13    14 2   
    38    13    15 1   
    39    15    51 1   
    40    15    52 1   
    41    16    17 ar  
    42    16    53 1   
    43    17    20 1   
    44    18    54 1   
    45    20    21 1   
    46    21    55 1   
    47    21    56 1   
    48    21    57 1   
    49    22    58 1   
    50    23    24 1   
    51    24    25 3   
    52    26    59 1   
    53    27    60 1   
    54    28    29 ar  
    55    28    61 1   
    56    29    30 ar  
    57    29    34 ar  
    58    30    31 ar  
    59    31    32 ar  
    60    31    62 1   
    61    32    33 ar  
    62    32    63 1   
    63    33    34 ar  
    64    33    64 1   
    65    40    65 1   
    66    41    65 1   
    67    42    65 1   
@<TRIPOS>SUBSTRUCTURE
     1 7S4         1 TEMP              0 ****  ****    0 ROOT
