@<TRIPOS>MOLECULE
7S4
   65    67     1     0     0
SMALL
No Charge or Current Charge


@<TRIPOS>ATOM
      1 C10         -3.2660    -0.7010     1.6520 ca         1 7S4      -0.079300
      2 C13         -5.6210     0.3510     0.4890 ca         1 7S4       0.122100
      3 C15         -3.8400     0.4790     2.1580 ca         1 7S4      -0.082000
      4 C17         -7.4260     2.0410     0.3530 c3         1 7S4       0.144900
      5 C21          2.9260    -0.7730    -0.1020 c2         1 7S4       0.919100
      6 C26          3.0490     1.6040     0.5260 ca         1 7S4       0.315000
      7 C28          3.5450     3.2170     2.2810 ca         1 7S4      -0.092000
      8 C02          0.6190    -2.9240    -1.5410 c3         1 7S4      -0.063000
      9 C03          0.9110    -4.3340    -0.9480 c3         1 7S4      -0.089767
     10 C04          1.6410    -2.6280    -2.6770 c3         1 7S4      -0.089767
     11 C05          0.6820    -1.8000    -0.4430 c3         1 7S4       0.400900
     12 N06         -0.3830    -1.9520     0.5430 ns         1 7S4      -0.517900
     13 C07         -0.7840    -0.9410     1.3770 c          1 7S4       0.610100
     14 O08         -0.2240     0.1480     1.3840 o          1 7S4      -0.615100
     15 C09         -1.9880    -1.2640     2.2660 c3         1 7S4      -0.101100
     16 C11         -3.8700    -1.3560     0.5630 ca         1 7S4      -0.159000
     17 C12         -5.0450    -0.8350    -0.0270 ca         1 7S4       0.113100
     18 C14         -5.0100     1.0030     1.5840 ca         1 7S4      -0.170000
     19 O16         -6.7730     0.8430    -0.1030 os         1 7S4      -0.319100
     20 O18         -5.6560    -1.4540    -1.1060 os         1 7S4      -0.320100
     21 C19         -5.1230    -2.6410    -1.7200 c3         1 7S4       0.145900
     22 N20          2.0100    -1.7220     0.1900 nu         1 7S4      -0.971400
     23 N22          4.1800    -0.9700    -0.2480 ne         1 7S4      -0.617700
     24 C23          4.7570    -2.1520    -0.3400 cg         1 7S4       0.413000
     25 N24          5.1480    -3.2470    -0.3680 n1         1 7S4      -0.554000
     26 N25          2.4050     0.4250     0.1670 nu         1 7S4      -0.933200
     27 C27          2.9110     2.0430     1.8520 ca         1 7S4      -0.124000
     28 C29          4.3160     3.9620     1.3770 ca         1 7S4      -0.085000
     29 C30          4.4590     3.5560     0.0380 ca         1 7S4       0.277000
     30 C31          3.8120     2.3670    -0.3940 ca         1 7S4      -0.065000
     31 C32          3.9420     1.9870    -1.7500 ca         1 7S4      -0.039000
     32 C33          4.7150     2.7870    -2.6030 ca         1 7S4      -0.172000
     33 C34          5.3290     3.9370    -2.0910 ca         1 7S4       0.356900
     34 N35          5.2040     4.3180    -0.8000 nb         1 7S4      -0.664000
     35 H1          -3.3770     0.9950     2.9960 ha         1 7S4       0.115000
     36 H2          -8.3160     2.2430    -0.2560 h1         1 7S4       0.041033
     37 H3          -7.7450     1.9380     1.3980 h1         1 7S4       0.041033
     38 H4          -6.7550     2.9050     0.2720 h1         1 7S4       0.041033
     39 H5           3.4410     3.5490     3.3120 ha         1 7S4       0.118000
     40 H6          -1.5700    -3.2440    -1.4660 hc         1 7S4       0.042478
     41 H7          -1.0670    -1.9570    -2.5800 hc         1 7S4       0.042478
     42 H8          -0.8410    -3.6590    -3.0200 hc         1 7S4       0.042478
     43 H9           0.8160    -5.1070    -1.7210 hc         1 7S4       0.042478
     44 H10          1.9290    -4.3990    -0.5440 hc         1 7S4       0.042478
     45 H11          0.2100    -4.5830    -0.1420 hc         1 7S4       0.042478
     46 H12          1.4920    -1.6210    -3.0870 hc         1 7S4       0.042478
     47 H13          2.6740    -2.7010    -2.3220 hc         1 7S4       0.042478
     48 H14          1.5310    -3.3450    -3.5000 hc         1 7S4       0.042478
     49 H15          0.4720    -0.8510    -0.9590 h2         1 7S4       0.089700
     50 H16         -0.8810    -2.8290     0.5900 hn         1 7S4       0.319500
     51 H17         -1.8210    -0.8250     3.2560 hc         1 7S4       0.066200
     52 H18         -2.0950    -2.3510     2.3630 hc         1 7S4       0.066200
     53 H19         -3.4140    -2.2660     0.1840 ha         1 7S4       0.114000
     54 H20         -5.4240     1.9160     2.0020 ha         1 7S4       0.122000
     55 H21         -4.1130    -2.4590    -2.1090 h1         1 7S4       0.039367
     56 H22         -5.0810    -3.4680    -0.9990 h1         1 7S4       0.039367
     57 H23         -5.7580    -2.9530    -2.5580 h1         1 7S4       0.039367
     58 H24          2.4910    -2.6130     0.2810 hn         1 7S4       0.507000
     59 H25          1.5470     0.2460     0.6890 hn         1 7S4       0.543000
     60 H26          2.3190     1.4650     2.5570 ha         1 7S4       0.123000
     61 H27          4.8070     4.8710     1.7150 ha         1 7S4       0.132000
     62 H28          3.4560     1.0980    -2.1430 ha         1 7S4       0.117000
     63 H29          4.8390     2.5250    -3.6500 ha         1 7S4       0.122000
     64 H30          5.9350     4.5760    -2.7310 h4         1 7S4       0.017100
     65 C01         -0.7990    -2.9460    -2.1870 c3         1 7S4      -0.089767
@<TRIPOS>BOND
     1     1     3 ar  
     2     1    15 1   
     3     1    16 ar  
     4     2    17 ar  
     5     2    18 ar  
     6     2    19 1   
     7     3    18 ar  
     8     3    35 1   
     9     4    19 1   
    10     4    36 1   
    11     4    37 1   
    12     4    38 1   
    13     5    22 1   
    14     5    23 2   
    15     5    26 1   
    16     6    26 1   
    17     6    27 ar  
    18     6    30 ar  
    19     7    27 ar  
    20     7    28 ar  
    21     7    39 1   
    22     8     9 1   
    23     8    10 1   
    24     8    11 1   
    25     8    65 1   
    26     9    43 1   
    27     9    44 1   
    28     9    45 1   
    29    10    46 1   
    30    10    47 1   
    31    10    48 1   
    32    11    12 1   
    33    11    22 1   
    34    11    49 1   
    35    12    13 1   
    36    12    50 1   
    37    13    14 2   
    38    13    15 1   
    39    15    51 1   
    40    15    52 1   
    41    16    17 ar  
    42    16    53 1   
    43    17    20 1   
    44    18    54 1   
    45    20    21 1   
    46    21    55 1   
    47    21    56 1   
    48    21    57 1   
    49    22    58 1   
    50    23    24 1   
    51    24    25 3   
    52    26    59 1   
    53    27    60 1   
    54    28    29 ar  
    55    28    61 1   
    56    29    30 ar  
    57    29    34 ar  
    58    30    31 ar  
    59    31    32 ar  
    60    31    62 1   
    61    32    33 ar  
    62    32    63 1   
    63    33    34 ar  
    64    33    64 1   
    65    40    65 1   
    66    41    65 1   
    67    42    65 1   
@<TRIPOS>SUBSTRUCTURE
     1 7S4         1 TEMP              0 ****  ****    0 ROOT
