@<TRIPOS>MOLECULE
7S5
   46    49     1     0     0
SMALL
abcg2


@<TRIPOS>ATOM
      1 C10        -17.5850    -4.0220    13.1920 ca         1 7S5      -0.110000
      2 C11        -17.1240    -2.9210    12.4800 ca         1 7S5      -0.104500
      3 C12        -16.0330    -3.0440    11.6230 ca         1 7S5      -0.101000
      4 C14        -11.7000    -1.8250    12.4750 cc         1 7S5       0.175400
      5 C02        -11.5280    -0.3510    10.5680 c          1 7S5       0.621600
      6 C04        -12.8480    -2.4410    10.6590 cd         1 7S5       0.740800
      7 C07        -15.3870    -4.2680    11.4750 ca         1 7S5      -0.106300
      8 C08        -15.8460    -5.3650    12.2040 ca         1 7S5      -0.101000
      9 C09        -16.9400    -5.2470    13.0510 ca         1 7S5      -0.104500
     10 C15        -11.1730    -0.6570    11.9130 cd         1 7S5      -0.296600
     11 C16        -10.3880    -0.0150    12.9250 cd         1 7S5      -0.081000
     12 C17        -10.4690    -0.8000    14.0410 cc         1 7S5      -0.187000
     13 C20        -13.1780    -2.6920    15.0670 c          1 7S5       0.597100
     14 C22        -15.1150    -3.9980    15.9030 ca         1 7S5       0.039000
     15 C23        -15.9710    -2.9380    16.2130 ca         1 7S5      -0.184000
     16 C24        -17.2390    -3.2140    16.6960 ca         1 7S5       0.357900
     17 C26        -16.9040    -5.4630    16.6060 ca         1 7S5       0.369900
     18 C27        -15.6200    -5.2880    16.1170 ca         1 7S5      -0.001000
     19 N03        -12.3850    -1.3200    10.0150 ns         1 7S5      -0.457400
     20 N05        -13.6580    -3.2600     9.9570 nu         1 7S5      -0.913400
     21 N13        -12.5250    -2.7260    11.9010 nc         1 7S5      -0.715100
     22 N18        -11.2600    -1.9120    13.7610 na         1 7S5       0.014000
     23 N21        -13.8260    -3.8460    15.4120 ns         1 7S5      -0.142000
     24 N25        -17.7150    -4.4470    16.8960 nb         1 7S5      -0.677000
     25 O01        -11.1880     0.6170     9.8830 o          1 7S5      -0.550000
     26 O29        -13.6810    -1.5850    15.0780 o          1 7S5      -0.544100
     27 CL28       -14.6590    -6.6930    15.7460 cl         1 7S5      -0.204000
     28 H101       -18.4280    -3.9250    13.8630 ha         1 7S5       0.119000
     29 H111       -17.6100    -1.9600    12.5930 ha         1 7S5       0.115500
     30 H121       -15.6840    -2.1820    11.0690 ha         1 7S5       0.110000
     31 H061       -14.5560    -5.0770     9.6770 h1         1 7S5       0.063700
     32 H062       -13.4380    -5.0270    11.0270 h1         1 7S5       0.063700
     33 H081       -15.3410    -6.3200    12.1070 ha         1 7S5       0.110000
     34 H091       -17.2830    -6.1080    13.6100 ha         1 7S5       0.115500
     35 H161        -9.8340     0.9040    12.8350 ha         1 7S5       0.148000
     36 H171       -10.0330    -0.6850    15.0190 h4         1 7S5       0.150000
     37 H191       -11.5640    -3.9080    14.2690 h1         1 7S5       0.080700
     38 H192       -11.1160    -2.8430    15.6020 h1         1 7S5       0.080700
     39 H231       -15.6510    -1.9210    16.0650 ha         1 7S5       0.162000
     40 H241       -17.9070    -2.3940    16.9310 h4         1 7S5       0.026100
     41 H261       -17.2810    -6.4680    16.7590 h4         1 7S5       0.032100
     42 H031       -12.6630    -1.1540     9.0570 hn         1 7S5       0.320500
     43 H051       -13.9580    -2.9710     9.0400 hn         1 7S5       0.500000
     44 H211       -13.3100    -4.7050    15.2830 hn         1 7S5       0.166000
     45 C06        -14.2250    -4.4670    10.5200 c3         1 7S5       0.294100
     46 C19        -11.7100    -2.9130    14.6900 c3         1 7S5       0.008600
@<TRIPOS>BOND
     1     1     2 ar  
     2     1     9 ar  
     3     1    28 1   
     4     2     3 ar  
     5     2    29 1   
     6     3     7 ar  
     7     3    30 1   
     8     4    10 2   
     9     4    21 1   
    10     4    22 1   
    11     5    10 1   
    12     5    19 1   
    13     5    25 2   
    14     6    19 1   
    15     6    20 1   
    16     6    21 2   
    17     7     8 ar  
    18     7    45 1   
    19     8     9 ar  
    20     8    33 1   
    21     9    34 1   
    22    10    11 1   
    23    11    12 2   
    24    11    35 1   
    25    12    22 1   
    26    12    36 1   
    27    13    23 1   
    28    13    26 2   
    29    13    46 1   
    30    14    15 ar  
    31    14    18 ar  
    32    14    23 1   
    33    15    16 ar  
    34    15    39 1   
    35    16    24 ar  
    36    16    40 1   
    37    17    18 ar  
    38    17    24 ar  
    39    17    41 1   
    40    18    27 1   
    41    19    42 1   
    42    20    43 1   
    43    20    45 1   
    44    22    46 1   
    45    23    44 1   
    46    31    45 1   
    47    32    45 1   
    48    37    46 1   
    49    38    46 1   
@<TRIPOS>SUBSTRUCTURE
     1 7S5         1 TEMP              0 ****  ****    0 ROOT
