@<TRIPOS>MOLECULE
7S5
   46    49     1     0     0
SMALL
No Charge or Current Charge


@<TRIPOS>ATOM
      1 C10        -18.3610    -4.0050    12.6910 ca         1 7S5      -0.110000
      2 C11        -17.3530    -3.0560    12.9250 ca         1 7S5      -0.104500
      3 C12        -16.0340    -3.3140    12.5150 ca         1 7S5      -0.101000
      4 C14        -11.6330    -1.7790    12.6650 cc         1 7S5       0.175400
      5 C02        -11.7260    -0.7520    10.4350 c          1 7S5       0.621600
      6 C04        -12.8750    -2.7510    11.0510 cd         1 7S5       0.740800
      7 C07        -15.7110    -4.5210    11.8580 ca         1 7S5      -0.106300
      8 C08        -16.7300    -5.4690    11.6300 ca         1 7S5      -0.101000
      9 C09        -18.0480    -5.2130    12.0460 ca         1 7S5      -0.104500
     10 C15        -11.2570    -0.7830    11.8230 cd         1 7S5      -0.296600
     11 C16        -10.4100     0.0990    12.5300 cd         1 7S5      -0.081000
     12 C17        -10.2720    -0.3600    13.8180 cc         1 7S5      -0.187000
     13 C20        -12.6430    -2.3240    15.6360 c          1 7S5       0.597100
     14 C22        -14.7510    -3.7910    15.6400 ca         1 7S5       0.039000
     15 C23        -15.6950    -2.8710    16.1430 ca         1 7S5      -0.184000
     16 C24        -17.0080    -3.2960    16.4080 ca         1 7S5       0.357900
     17 C26        -16.5320    -5.4450    15.6980 ca         1 7S5       0.369900
     18 C27        -15.1940    -5.1090    15.4110 ca         1 7S5      -0.001000
     19 N03        -12.5430    -1.7970    10.1540 ns         1 7S5      -0.457400
     20 N05        -13.7150    -3.7160    10.6240 nu         1 7S5      -0.913400
     21 N13        -12.4600    -2.8110    12.3040 nc         1 7S5      -0.715100
     22 N18        -11.0400    -1.5290    13.9010 na         1 7S5       0.014000
     23 N21        -13.4010    -3.4500    15.3430 ns         1 7S5      -0.142000
     24 N25        -17.4300    -4.5620    16.1990 nb         1 7S5      -0.677000
     25 O01        -11.4340     0.1020     9.6130 o          1 7S5      -0.550000
     26 O29        -13.0600    -1.3710    16.2860 o          1 7S5      -0.544100
     27 Cl28       -14.0920    -6.3460    14.7940 cl         1 7S5      -0.204000
     28 H101       -19.3810    -3.8070    13.0130 ha         1 7S5       0.119000
     29 H111       -17.5920    -2.1220    13.4290 ha         1 7S5       0.115500
     30 H121       -15.2620    -2.5750    12.7130 ha         1 7S5       0.110000
     31 H061       -14.2680    -5.7420    10.8220 h1         1 7S5       0.063700
     32 H062       -13.6680    -5.0250    12.3110 h1         1 7S5       0.063700
     33 H081       -16.5010    -6.4100    11.1340 ha         1 7S5       0.110000
     34 H091       -18.8280    -5.9500    11.8670 ha         1 7S5       0.115500
     35 H161        -9.9450     0.9950    12.1270 ha         1 7S5       0.148000
     36 H171        -9.7120     0.0380    14.6560 h4         1 7S5       0.150000
     37 H191       -10.9390    -3.3950    14.8600 h1         1 7S5       0.080700
     38 H192       -10.5400    -2.0050    15.8930 h1         1 7S5       0.080700
     39 H231       -15.4470    -1.8330    16.3300 ha         1 7S5       0.162000
     40 H241       -17.7460    -2.5970    16.7990 h4         1 7S5       0.026100
     41 H261       -16.8940    -6.4590    15.5330 h4         1 7S5       0.032100
     42 H031       -12.8990    -1.8370     9.2150 hn         1 7S5       0.320500
     43 H051       -14.1050    -3.5650     9.7010 hn         1 7S5       0.500000
     44 H211       -12.9120    -4.1550    14.8070 hn         1 7S5       0.166000
     45 C06        -14.2780    -4.8210    11.4210 c3         1 7S5       0.294100
     46 C19        -11.2090    -2.3610    15.1010 c3         1 7S5       0.008600
@<TRIPOS>BOND
     1     1     2 ar  
     2     1     9 ar  
     3     1    28 1   
     4     2     3 ar  
     5     2    29 1   
     6     3     7 ar  
     7     3    30 1   
     8     4    10 2   
     9     4    21 1   
    10     4    22 1   
    11     5    10 1   
    12     5    19 1   
    13     5    25 2   
    14     6    19 1   
    15     6    20 1   
    16     6    21 2   
    17     7     8 ar  
    18     7    45 1   
    19     8     9 ar  
    20     8    33 1   
    21     9    34 1   
    22    10    11 1   
    23    11    12 2   
    24    11    35 1   
    25    12    22 1   
    26    12    36 1   
    27    13    23 1   
    28    13    26 2   
    29    13    46 1   
    30    14    15 ar  
    31    14    18 ar  
    32    14    23 1   
    33    15    16 ar  
    34    15    39 1   
    35    16    24 ar  
    36    16    40 1   
    37    17    18 ar  
    38    17    24 ar  
    39    17    41 1   
    40    18    27 1   
    41    19    42 1   
    42    20    43 1   
    43    20    45 1   
    44    22    46 1   
    45    23    44 1   
    46    31    45 1   
    47    32    45 1   
    48    37    46 1   
    49    38    46 1   
@<TRIPOS>SUBSTRUCTURE
     1 7S5         1 TEMP              0 ****  ****    0 ROOT
