@<TRIPOS>MOLECULE
7S6
   86    90     1     0     0
SMALL
No Charge or Current Charge


@<TRIPOS>ATOM
      1 O1          -8.3470    15.7010    -6.1730 o          1 7S6      -0.612100
      2 C1          -7.4810    16.2670    -5.5180 c          1 7S6       0.582100
      3 C2          -7.0120    17.7540    -5.6570 c5         1 7S6       0.033700
      4 N1          -7.9110    18.5980    -6.5000 n          1 7S6      -0.404800
      5 C3          -9.2070    19.0270    -6.1250 c          1 7S6       0.617100
      6 C4          -9.7650    18.6950    -4.7120 c3         1 7S6      -0.130700
      7 C5          -9.9130    19.9830    -3.8670 c3         1 7S6      -0.084100
      8 C6         -11.1000    17.9190    -4.8060 c3         1 7S6      -0.084100
      9 O2          -9.8760    19.6870    -6.9110 o          1 7S6      -0.600100
     10 C7          -7.3380    18.9310    -7.8290 c5         1 7S6       0.088000
     11 C8          -6.0870    18.0140    -7.9340 c5         1 7S6       0.107700
     12 N2          -6.5910    16.6980    -8.3610 ns         1 7S6      -0.514900
     13 C9          -5.7590    15.8770    -9.1030 c          1 7S6       0.609100
     14 C10         -6.4920    14.4880    -9.3280 c5         1 7S6       0.081500
     15 N3          -6.0300    13.6570   -10.4870 n7         1 7S6      -0.814400
     16 C11         -4.7270    13.0830   -10.0350 c5         1 7S6       0.120800
     17 C12         -4.8170    12.9350    -8.4790 c5         1 7S6       0.162300
     18 F1          -3.8080    13.6660    -7.8460 f          1 7S6      -0.269000
     19 C13         -6.2120    13.5300    -8.1360 c5         1 7S6      -0.147400
     20 O3          -4.6690    16.2350    -9.5390 o          1 7S6      -0.574100
     21 C14         -5.6620    17.8280    -6.4500 c5         1 7S6      -0.104400
     22 N4          -6.7840    15.6540    -4.5040 ns         1 7S6      -0.499900
     23 C15         -6.9780    14.2660    -4.0960 c3         1 7S6       0.155300
     24 C16         -5.7450    13.7370    -3.3820 ca         1 7S6      -0.115300
     25 C17         -5.6870    13.7210    -1.9750 ca         1 7S6      -0.097000
     26 C18         -4.5410    13.2360    -1.3190 ca         1 7S6      -0.093000
     27 C19         -3.4450    12.7660    -2.0650 ca         1 7S6       0.042000
     28 C20         -2.2770    12.2730    -1.3960 cg         1 7S6      -0.112000
     29 C21         -1.2780    11.8650    -0.8270 ch         1 7S6      -0.094000
     30 C22         -0.1110    11.4020    -0.1510 ca         1 7S6       0.028000
     31 C23          1.1430    11.9730    -0.4330 ca         1 7S6      -0.087000
     32 C24          2.2940    11.5170     0.2330 ca         1 7S6      -0.103500
     33 C25          2.2020    10.4900     1.1940 ca         1 7S6      -0.113300
     34 C26          3.4550     9.9880     1.9130 c3         1 7S6       0.223100
     35 N5           3.7690    10.6980     3.1820 n3         1 7S6      -0.732600
     36 C27          2.7400    10.5180     4.2540 c6         1 7S6       0.133800
     37 C28          3.1650    11.2190     5.5790 c6         1 7S6       0.153100
     38 O4           3.4560    12.6180     5.3390 os         1 7S6      -0.449000
     39 C29          4.5030    12.8110     4.3570 c6         1 7S6       0.153100
     40 C30          4.1080    12.1460     3.0040 c6         1 7S6       0.133800
     41 C31          0.9440     9.9140     1.4660 ca         1 7S6      -0.103500
     42 C32         -0.2070    10.3700     0.7990 ca         1 7S6      -0.087000
     43 C33         -3.5000    12.7830    -3.4710 ca         1 7S6      -0.093000
     44 C34         -4.6460    13.2670    -4.1260 ca         1 7S6      -0.097000
     45 H1          -6.8890    18.1760    -4.6500 h1         1 7S6       0.067700
     46 H2          -9.0660    18.0540    -4.1690 hc         1 7S6       0.046700
     47 H3         -10.2590    19.7450    -2.8540 hc         1 7S6       0.042700
     48 H4          -8.9490    20.5010    -3.7840 hc         1 7S6       0.042700
     49 H5         -10.6340    20.6720    -4.3230 hc         1 7S6       0.042700
     50 H6         -11.4600    17.6430    -3.8080 hc         1 7S6       0.042700
     51 H7         -11.8740    18.5250    -5.2940 hc         1 7S6       0.042700
     52 H8         -10.9690    16.9980    -5.3870 hc         1 7S6       0.042700
     53 H9          -7.0470    19.9890    -7.8580 h1         1 7S6       0.067200
     54 H10         -8.0490    18.7550    -8.6490 h1         1 7S6       0.067200
     55 H11         -5.3010    18.4330    -8.5780 h1         1 7S6       0.087700
     56 H12         -7.4690    16.3060    -8.0350 hn         1 7S6       0.330500
     57 H13         -7.5670    14.7030    -9.4170 h1         1 7S6       0.075700
     58 H14         -6.6970    12.8840   -10.6110 hn         1 7S6       0.409000
     59 H16         -4.5270    12.1190   -10.5230 h1         1 7S6       0.066200
     60 H17         -3.8990    13.7550   -10.3020 h1         1 7S6       0.066200
     61 H18         -4.7280    11.8890    -8.1550 h1         1 7S6       0.063700
     62 H19         -6.2250    14.0380    -7.1660 hc         1 7S6       0.074700
     63 H20         -6.9670    12.7370    -8.0900 hc         1 7S6       0.074700
     64 H21         -5.0130    16.9580    -6.2940 hc         1 7S6       0.074200
     65 H22         -5.0870    18.7020    -6.1220 hc         1 7S6       0.074200
     66 H23         -6.0840    16.2010    -4.0170 hn         1 7S6       0.322500
     67 H24         -7.8520    14.2100    -3.4330 h1         1 7S6       0.057700
     68 H25         -7.1850    13.6480    -4.9790 h1         1 7S6       0.057700
     69 H26         -6.5280    14.0850    -1.3880 ha         1 7S6       0.124500
     70 H27         -4.5060    13.2280    -0.2320 ha         1 7S6       0.124000
     71 H28          1.2280    12.7700    -1.1690 ha         1 7S6       0.121000
     72 H29          3.2580    11.9660     0.0050 ha         1 7S6       0.114000
     73 H30          3.3340     8.9140     2.1140 h1         1 7S6       0.059200
     74 H31          4.3080    10.0720     1.2250 h1         1 7S6       0.059200
     75 H33          1.7740    10.9390     3.9360 h1         1 7S6       0.042200
     76 H34          2.5770     9.4490     4.4540 h1         1 7S6       0.042200
     77 H35          2.3570    11.1410     6.3200 h1         1 7S6       0.050200
     78 H36          4.0580    10.7290     5.9930 h1         1 7S6       0.050200
     79 H37          5.4380    12.3710     4.7320 h1         1 7S6       0.050200
     80 H38          4.6660    13.8880     4.2110 h1         1 7S6       0.050200
     81 H39          4.9410    12.2600     2.2950 h1         1 7S6       0.042200
     82 H40          3.2500    12.6940     2.5880 h1         1 7S6       0.042200
     83 H41          0.8580     9.1140     2.1980 ha         1 7S6       0.114000
     84 H42         -1.1710     9.9200     1.0220 ha         1 7S6       0.121000
     85 H43         -2.6560    12.4230    -4.0550 ha         1 7S6       0.124000
     86 H44         -4.6760    13.2790    -5.2140 ha         1 7S6       0.124500
@<TRIPOS>BOND
     1     1     2 2   
     2     2     3 1   
     3     2    22 1   
     4     3     4 1   
     5     3    21 1   
     6     3    45 1   
     7     4     5 1   
     8     4    10 1   
     9     5     6 1   
    10     5     9 2   
    11     6     7 1   
    12     6     8 1   
    13     6    46 1   
    14     7    47 1   
    15     7    48 1   
    16     7    49 1   
    17     8    50 1   
    18     8    51 1   
    19     8    52 1   
    20    10    11 1   
    21    10    53 1   
    22    10    54 1   
    23    11    12 1   
    24    11    21 1   
    25    11    55 1   
    26    12    13 1   
    27    12    56 1   
    28    13    14 1   
    29    13    20 2   
    30    14    15 1   
    31    14    19 1   
    32    14    57 1   
    33    15    16 1   
    34    15    58 1   
    35    16    17 1   
    36    16    59 1   
    37    16    60 1   
    38    17    18 1   
    39    17    19 1   
    40    17    61 1   
    41    19    62 1   
    42    19    63 1   
    43    21    64 1   
    44    21    65 1   
    45    22    23 1   
    46    22    66 1   
    47    23    24 1   
    48    23    67 1   
    49    23    68 1   
    50    24    25 ar  
    51    24    44 ar  
    52    25    26 ar  
    53    25    69 1   
    54    26    27 ar  
    55    26    70 1   
    56    27    28 1   
    57    27    43 ar  
    58    28    29 3   
    59    29    30 1   
    60    30    31 ar  
    61    30    42 ar  
    62    31    32 ar  
    63    31    71 1   
    64    32    33 ar  
    65    32    72 1   
    66    33    34 1   
    67    33    41 ar  
    68    34    35 1   
    69    34    73 1   
    70    34    74 1   
    71    35    36 1   
    72    35    40 1   
    73    36    37 1   
    74    36    75 1   
    75    36    76 1   
    76    37    38 1   
    77    37    77 1   
    78    37    78 1   
    79    38    39 1   
    80    39    40 1   
    81    39    79 1   
    82    39    80 1   
    83    40    81 1   
    84    40    82 1   
    85    41    42 ar  
    86    41    83 1   
    87    42    84 1   
    88    43    44 ar  
    89    43    85 1   
    90    44    86 1   
@<TRIPOS>SUBSTRUCTURE
     1 7S6         1 TEMP              0 ****  ****    0 ROOT
