@<TRIPOS>MOLECULE
7S6
   86    90     1     0     0
SMALL
bcc


@<TRIPOS>ATOM
      1 O1          -8.2550    15.7000    -6.0820 o          1 7S6      -0.612100
      2 C1          -7.2410    16.1910    -5.6080 c          1 7S6       0.649100
      3 C2          -6.8610    17.6600    -5.8220 c5         1 7S6       0.033700
      4 N1          -7.9820    18.4220    -6.3210 n          1 7S6      -0.471800
      5 C3          -9.0940    18.7520    -5.6330 c          1 7S6       0.684100
      6 C4          -9.1530    18.4250    -4.1490 c3         1 7S6      -0.130700
      7 C5          -8.8830    19.7090    -3.3610 c3         1 7S6      -0.084100
      8 C6         -10.5080    17.8270    -3.7880 c3         1 7S6      -0.084100
      9 O2         -10.0140    19.3490    -6.1770 o          1 7S6      -0.600100
     10 C7          -7.8570    18.7530    -7.7370 c5         1 7S6       0.088000
     11 C8          -6.6250    17.9860    -8.2060 c5         1 7S6       0.107700
     12 N2          -6.9970    16.7170    -8.7930 ns         1 7S6      -0.581900
     13 C9          -6.1530    16.0070    -9.5650 c          1 7S6       0.676100
     14 C10         -6.7280    14.6890   -10.0920 c5         1 7S6       0.081500
     15 N3          -5.7590    14.0010   -10.9240 n7         1 7S6      -0.759200
     16 C11         -4.9900    13.1090   -10.0490 c5         1 7S6       0.120800
     17 C12         -5.6890    13.0910    -8.6870 c5         1 7S6       0.143600
     18 F1          -4.9960    13.9290    -7.7940 f          1 7S6      -0.250300
     19 C13         -7.0470    13.6920    -8.9640 c5         1 7S6      -0.147400
     20 O3          -5.0330    16.4000    -9.8450 o          1 7S6      -0.574100
     21 C14         -5.8060    17.8330    -6.9230 c5         1 7S6      -0.104400
     22 N4          -6.3720    15.4970    -4.8640 ns         1 7S6      -0.566900
     23 C15         -6.5540    14.0870    -4.5680 c3         1 7S6       0.155300
     24 C16         -5.4010    13.5860    -3.7470 ca         1 7S6      -0.115300
     25 C17         -5.5050    13.4830    -2.3630 ca         1 7S6      -0.115000
     26 C18         -4.4330    13.0510    -1.6010 ca         1 7S6      -0.111000
     27 C19         -3.2230    12.7170    -2.2140 ca         1 7S6       0.042000
     28 C20         -2.1150    12.2710    -1.4400 cg         1 7S6      -0.112000
     29 C21         -1.1710    11.8880    -0.7920 ch         1 7S6      -0.094000
     30 C22         -0.0530    11.4370    -0.0340 ca         1 7S6       0.028000
     31 C23          1.2370    11.8750    -0.3450 ca         1 7S6      -0.105000
     32 C24          2.3200    11.4340     0.3960 ca         1 7S6      -0.121500
     33 C25          2.1560    10.5460     1.4570 ca         1 7S6      -0.113300
     34 C26          3.3400    10.1090     2.2890 c3         1 7S6       0.223100
     35 N5           3.5720    10.8770     3.4980 n3         1 7S6      -0.732600
     36 C27          2.5480    10.7410     4.5140 c6         1 7S6       0.133800
     37 C28          3.0210    11.4040     5.7950 c6         1 7S6       0.129900
     38 O4           3.3330    12.7630     5.5850 os         1 7S6      -0.402600
     39 C29          4.3200    12.9050     4.5880 c6         1 7S6       0.129900
     40 C30          3.8860    12.2740     3.2760 c6         1 7S6       0.133800
     41 C31          0.8680    10.1010     1.7520 ca         1 7S6      -0.121500
     42 C32         -0.2260    10.5410     1.0250 ca         1 7S6      -0.105000
     43 C33         -3.1150    12.8250    -3.6050 ca         1 7S6      -0.111000
     44 C34         -4.1940    13.2520    -4.3570 ca         1 7S6      -0.115000
     45 H1          -6.4810    18.0700    -4.8820 h1         1 7S6       0.067700
     46 H2          -8.3860    17.7020    -3.8720 hc         1 7S6       0.046700
     47 H3          -8.9150    19.5060    -2.2900 hc         1 7S6       0.042700
     48 H4          -7.9010    20.1250    -3.5910 hc         1 7S6       0.042700
     49 H5          -9.6330    20.4690    -3.5810 hc         1 7S6       0.042700
     50 H6         -10.5380    17.5900    -2.7250 hc         1 7S6       0.042700
     51 H7         -11.3190    18.5230    -3.9990 hc         1 7S6       0.042700
     52 H8         -10.7000    16.9040    -4.3380 hc         1 7S6       0.042700
     53 H9          -7.7090    19.8270    -7.8660 h1         1 7S6       0.067200
     54 H10         -8.7540    18.4770    -8.2930 h1         1 7S6       0.067200
     55 H11         -6.0770    18.5620    -8.9500 h1         1 7S6       0.087700
     56 H12         -7.8980    16.3280    -8.5600 hn         1 7S6       0.330500
     57 H13         -7.6210    14.9280   -10.6760 h1         1 7S6       0.075700
     58 H14         -6.2600    13.4490   -11.6070 hn         1 7S6       0.353800
     59 H16         -4.9460    12.1050   -10.4720 h1         1 7S6       0.066200
     60 H17         -3.9590    13.4510    -9.9280 h1         1 7S6       0.066200
     61 H18         -5.7240    12.1040    -8.2260 h1         1 7S6       0.063700
     62 H19         -7.5220    14.1010    -8.0720 hc         1 7S6       0.074700
     63 H20         -7.7050    12.9160    -9.3600 hc         1 7S6       0.074700
     64 H21         -5.0920    17.0130    -6.9680 hc         1 7S6       0.074200
     65 H22         -5.2470    18.7520    -6.7370 hc         1 7S6       0.074200
     66 H23         -5.5790    15.9710    -4.4590 hn         1 7S6       0.322500
     67 H24         -7.4930    13.9370    -4.0290 h1         1 7S6       0.057700
     68 H25         -6.6240    13.5210    -5.5000 h1         1 7S6       0.057700
     69 H26         -6.4360    13.7410    -1.8740 ha         1 7S6       0.142500
     70 H27         -4.5290    12.9720    -0.5260 ha         1 7S6       0.142000
     71 H28          1.3860    12.5620    -1.1690 ha         1 7S6       0.139000
     72 H29          3.3130    11.7810     0.1380 ha         1 7S6       0.132000
     73 H30          3.2150     9.0620     2.5800 h1         1 7S6       0.059200
     74 H31          4.2470    10.1650     1.6810 h1         1 7S6       0.059200
     75 H33          1.5870    11.1870     4.2120 h1         1 7S6       0.042200
     76 H34          2.3650     9.6800     4.7070 h1         1 7S6       0.042200
     77 H35          2.2380    11.3610     6.5530 h1         1 7S6       0.050200
     78 H36          3.8970    10.8630     6.1790 h1         1 7S6       0.050200
     79 H37          5.2640    12.4450     4.9140 h1         1 7S6       0.050200
     80 H38          4.4950    13.9740     4.4530 h1         1 7S6       0.050200
     81 H39          4.7060    12.3540     2.5570 h1         1 7S6       0.042200
     82 H40          3.0340    12.8400     2.8650 h1         1 7S6       0.042200
     83 H41          0.7150     9.3920     2.5570 ha         1 7S6       0.132000
     84 H42         -1.2180    10.1840     1.2700 ha         1 7S6       0.139000
     85 H43         -2.1840    12.5660    -4.0920 ha         1 7S6       0.142000
     86 H44         -4.0990    13.3240    -5.4340 ha         1 7S6       0.142500
@<TRIPOS>BOND
     1     1     2 2   
     2     2     3 1   
     3     2    22 1   
     4     3     4 1   
     5     3    21 1   
     6     3    45 1   
     7     4     5 1   
     8     4    10 1   
     9     5     6 1   
    10     5     9 2   
    11     6     7 1   
    12     6     8 1   
    13     6    46 1   
    14     7    47 1   
    15     7    48 1   
    16     7    49 1   
    17     8    50 1   
    18     8    51 1   
    19     8    52 1   
    20    10    11 1   
    21    10    53 1   
    22    10    54 1   
    23    11    12 1   
    24    11    21 1   
    25    11    55 1   
    26    12    13 1   
    27    12    56 1   
    28    13    14 1   
    29    13    20 2   
    30    14    15 1   
    31    14    19 1   
    32    14    57 1   
    33    15    16 1   
    34    15    58 1   
    35    16    17 1   
    36    16    59 1   
    37    16    60 1   
    38    17    18 1   
    39    17    19 1   
    40    17    61 1   
    41    19    62 1   
    42    19    63 1   
    43    21    64 1   
    44    21    65 1   
    45    22    23 1   
    46    22    66 1   
    47    23    24 1   
    48    23    67 1   
    49    23    68 1   
    50    24    25 ar  
    51    24    44 ar  
    52    25    26 ar  
    53    25    69 1   
    54    26    27 ar  
    55    26    70 1   
    56    27    28 1   
    57    27    43 ar  
    58    28    29 3   
    59    29    30 1   
    60    30    31 ar  
    61    30    42 ar  
    62    31    32 ar  
    63    31    71 1   
    64    32    33 ar  
    65    32    72 1   
    66    33    34 1   
    67    33    41 ar  
    68    34    35 1   
    69    34    73 1   
    70    34    74 1   
    71    35    36 1   
    72    35    40 1   
    73    36    37 1   
    74    36    75 1   
    75    36    76 1   
    76    37    38 1   
    77    37    77 1   
    78    37    78 1   
    79    38    39 1   
    80    39    40 1   
    81    39    79 1   
    82    39    80 1   
    83    40    81 1   
    84    40    82 1   
    85    41    42 ar  
    86    41    83 1   
    87    42    84 1   
    88    43    44 ar  
    89    43    85 1   
    90    44    86 1   
@<TRIPOS>SUBSTRUCTURE
     1 7S6         1 TEMP              0 ****  ****    0 ROOT
