@<TRIPOS>MOLECULE
7S7
   56    58     1     0     0
SMALL
abcg2


@<TRIPOS>ATOM
      1 N22          4.6060     3.3990    -0.8500 nv         1 7S7      -1.055900
      2 C22          4.9870     2.1150    -0.5720 ca         1 7S7       0.596900
      3 C23          6.3120     1.8200    -0.2140 ca         1 7S7      -0.237000
      4 C24          6.6670     0.5020     0.0040 ca         1 7S7       0.000700
      5 C27          8.0610     0.1300     0.4090 c3         1 7S7      -0.052800
      6 C25          5.6830    -0.4780    -0.1400 ca         1 7S7      -0.205000
      7 N21          4.0610     1.1710    -0.7080 nb         1 7S7      -0.759000
      8 C26          4.3980    -0.0980    -0.4870 ca         1 7S7       0.424300
      9 C20          3.3260    -1.1310    -0.7130 c3         1 7S7      -0.108700
     10 C17          1.9640    -0.7850    -0.1040 c3         1 7S7      -0.112000
     11 C18          1.9150    -1.0190     1.4100 c3         1 7S7       0.156800
     12 N19          2.9680    -0.3030     2.1040 n8         1 7S7      -1.000200
     13 C16          0.8220    -1.5530    -0.7240 ca         1 7S7       0.363300
     14 N11         -0.3630    -0.9500    -0.7040 nb         1 7S7      -0.681000
     15 C15          0.9770    -2.8410    -1.2310 ca         1 7S7      -0.166000
     16 C14         -0.1360    -3.5000    -1.7280 ca         1 7S7      -0.073000
     17 C13         -1.3660    -2.8640    -1.6990 ca         1 7S7      -0.166000
     18 C12         -1.4380    -1.5790    -1.1730 ca         1 7S7       0.358300
     19 C09         -2.7440    -0.8440    -1.0720 c3         1 7S7      -0.120700
     20 C08         -3.2060    -0.7260     0.3860 c3         1 7S7      -0.122700
     21 C06         -4.4840     0.0520     0.5090 ca         1 7S7       0.398300
     22 N01         -4.4190     1.3440     0.1770 nb         1 7S7      -0.748000
     23 C02         -5.5230     2.0780     0.2480 ca         1 7S7       0.598900
     24 N02         -5.4090     3.4050    -0.0520 nv         1 7S7      -1.053900
     25 C03         -6.7570     1.5410     0.6580 ca         1 7S7      -0.233000
     26 C04         -6.8270     0.2070     1.0000 ca         1 7S7       0.000700
     27 C05         -5.6550    -0.5560     0.9220 ca         1 7S7      -0.217000
     28 C07         -8.1140    -0.4160     1.4460 c3         1 7S7      -0.053800
     29 H221         5.1710     4.1410    -0.4730 hn         1 7S7       0.465000
     30 H222         3.6160     3.5800    -0.8130 hn         1 7S7       0.465000
     31 H23          7.0400     2.6160    -0.1170 ha         1 7S7       0.116000
     32 H271         8.0910    -0.1550     1.4620 hc         1 7S7       0.044367
     33 H272         8.4220    -0.7250    -0.1640 hc         1 7S7       0.044367
     34 H273         8.7580     0.9540     0.2680 hc         1 7S7       0.044367
     35 H25          5.9140    -1.5210     0.0320 ha         1 7S7       0.120000
     36 H201         3.2060    -1.2360    -1.7970 hc         1 7S7       0.050700
     37 H202         3.6790    -2.1000    -0.3520 hc         1 7S7       0.050700
     38 H17          1.7690     0.2750    -0.2920 hc         1 7S7       0.095700
     39 H181         0.9030    -0.7650     1.7570 h1         1 7S7       0.031700
     40 H182         2.0460    -2.0900     1.6000 h1         1 7S7       0.031700
     41 H191         2.8690     0.6920     1.9430 hn         1 7S7       0.395000
     42 H192         2.8620    -0.4370     3.1010 hn         1 7S7       0.395000
     43 H15          1.9440    -3.3240    -1.2430 ha         1 7S7       0.123000
     44 H14         -0.0430    -4.4990    -2.1330 ha         1 7S7       0.116000
     45 H13         -2.2560    -3.3520    -2.0760 ha         1 7S7       0.121000
     46 H091        -2.6320     0.1580    -1.4910 hc         1 7S7       0.061700
     47 H092        -3.5070    -1.3580    -1.6590 hc         1 7S7       0.061700
     48 H081        -3.3400    -1.7240     0.8100 hc         1 7S7       0.060200
     49 H082        -2.4220    -0.2330     0.9650 hc         1 7S7       0.060200
     50 H05         -5.6640    -1.6090     1.1770 ha         1 7S7       0.120000
     51 H021        -4.6040     3.6660    -0.5990 hn         1 7S7       0.467500
     52 H022        -6.2500     3.8980    -0.3020 hn         1 7S7       0.467500
     53 H03         -7.6360     2.1720     0.6990 ha         1 7S7       0.118000
     54 H071        -8.3720    -1.2720     0.8200 hc         1 7S7       0.045700
     55 H072        -8.0310    -0.7860     2.4690 hc         1 7S7       0.045700
     56 H073        -8.9400     0.2920     1.4090 hc         1 7S7       0.045700
@<TRIPOS>BOND
     1     1     2 1   
     2     1    29 1   
     3     1    30 1   
     4     2     3 ar  
     5     2     7 ar  
     6     3     4 ar  
     7     3    31 1   
     8     4     5 1   
     9     4     6 ar  
    10     5    32 1   
    11     5    33 1   
    12     5    34 1   
    13     6     8 ar  
    14     6    35 1   
    15     7     8 ar  
    16     8     9 1   
    17     9    10 1   
    18     9    36 1   
    19     9    37 1   
    20    10    11 1   
    21    10    13 1   
    22    10    38 1   
    23    11    12 1   
    24    11    39 1   
    25    11    40 1   
    26    12    41 1   
    27    12    42 1   
    28    13    14 ar  
    29    13    15 ar  
    30    14    18 ar  
    31    15    16 ar  
    32    15    43 1   
    33    16    17 ar  
    34    16    44 1   
    35    17    18 ar  
    36    17    45 1   
    37    18    19 1   
    38    19    20 1   
    39    19    46 1   
    40    19    47 1   
    41    20    21 1   
    42    20    48 1   
    43    20    49 1   
    44    21    22 ar  
    45    21    27 ar  
    46    22    23 ar  
    47    23    24 1   
    48    23    25 ar  
    49    24    51 1   
    50    24    52 1   
    51    25    26 ar  
    52    25    53 1   
    53    26    27 ar  
    54    26    28 1   
    55    27    50 1   
    56    28    54 1   
    57    28    55 1   
    58    28    56 1   
@<TRIPOS>SUBSTRUCTURE
     1 7S7         1 TEMP              0 ****  ****    0 ROOT
