@<TRIPOS>MOLECULE
7S7
   56    58     1     0     0
SMALL
No Charge or Current Charge


@<TRIPOS>ATOM
      1 N22          4.5600     3.3330    -1.6810 nv         1 7S7      -1.055900
      2 C22          5.0000     2.1400    -1.2770 ca         1 7S7       0.596900
      3 C23          6.3290     1.8850    -0.9340 ca         1 7S7      -0.237000
      4 C24          6.6750     0.5890    -0.5260 ca         1 7S7       0.000700
      5 C27          8.1030     0.2340    -0.1430 c3         1 7S7      -0.052800
      6 C25          5.6490    -0.3690    -0.4810 ca         1 7S7      -0.205000
      7 N21          4.0170     1.2540    -1.2430 nb         1 7S7      -0.759000
      8 C26          4.3350     0.0040    -0.8310 ca         1 7S7       0.424300
      9 C20          3.2040    -1.0220    -0.8380 c3         1 7S7      -0.108700
     10 C17          2.1680    -0.8720     0.3210 c3         1 7S7      -0.112000
     11 C18          2.7080    -1.3010     1.7080 c3         1 7S7       0.156800
     12 N19          3.7490    -0.3970     2.2290 n8         1 7S7      -1.000200
     13 C16          0.8910    -1.6520     0.0080 ca         1 7S7       0.363300
     14 N11         -0.2480    -0.9280    -0.1010 nb         1 7S7      -0.681000
     15 C15          0.9100    -3.0530    -0.1560 ca         1 7S7      -0.166000
     16 C14         -0.2850    -3.7300    -0.4430 ca         1 7S7      -0.073000
     17 C13         -1.4610    -2.9730    -0.5540 ca         1 7S7      -0.166000
     18 C12         -1.4000    -1.5790    -0.3780 ca         1 7S7       0.358300
     19 C09         -2.6560    -0.7260    -0.4830 c3         1 7S7      -0.120700
     20 C08         -3.5150    -0.7660     0.8040 c3         1 7S7      -0.122700
     21 C06         -4.7860     0.0640     0.6910 ca         1 7S7       0.398300
     22 N01         -4.7780     1.2730     1.2950 nb         1 7S7      -0.748000
     23 C02         -5.8810     1.9990     1.1960 ca         1 7S7       0.598900
     24 N02         -5.7490     3.1680     1.8260 nv         1 7S7      -1.053900
     25 C03         -7.0380     1.6180     0.5130 ca         1 7S7      -0.233000
     26 C04         -7.0560     0.3670    -0.1210 ca         1 7S7       0.000700
     27 C05         -5.8990    -0.4220    -0.0230 ca         1 7S7      -0.217000
     28 C07         -8.2810    -0.1190    -0.8790 c3         1 7S7      -0.053800
     29 H221         5.1120     4.1440    -1.4280 hn         1 7S7       0.465000
     30 H222         3.5540     3.4460    -1.6760 hn         1 7S7       0.465000
     31 H23          7.0740     2.6720    -0.9900 ha         1 7S7       0.116000
     32 H271         8.2590     0.3580     0.9350 hc         1 7S7       0.044367
     33 H272         8.3370    -0.8060    -0.4000 hc         1 7S7       0.044367
     34 H273         8.8260     0.8730    -0.6630 hc         1 7S7       0.044367
     35 H25          5.8590    -1.3880    -0.1700 ha         1 7S7       0.120000
     36 H201         2.6690    -0.9400    -1.7920 hc         1 7S7       0.050700
     37 H202         3.6190    -2.0360    -0.8220 hc         1 7S7       0.050700
     38 H17          1.9050     0.1910     0.3880 hc         1 7S7       0.095700
     39 H181         1.8780    -1.3090     2.4290 h1         1 7S7       0.031700
     40 H182         3.1190    -2.3190     1.6520 h1         1 7S7       0.031700
     41 H191         3.3460     0.5380     2.3600 hn         1 7S7       0.395000
     42 H192         3.9990    -0.6870     3.1820 hn         1 7S7       0.395000
     43 H15          1.8400    -3.6060    -0.0620 ha         1 7S7       0.123000
     44 H14         -0.3000    -4.8100    -0.5740 ha         1 7S7       0.116000
     45 H13         -2.4090    -3.4570    -0.7730 ha         1 7S7       0.121000
     46 H091        -2.3930     0.3160    -0.7050 hc         1 7S7       0.061700
     47 H092        -3.2600    -1.0720    -1.3310 hc         1 7S7       0.061700
     48 H081        -3.7810    -1.8060     1.0270 hc         1 7S7       0.060200
     49 H082        -2.9070    -0.4210     1.6500 hc         1 7S7       0.060200
     50 H05         -5.8560    -1.4010    -0.4920 ha         1 7S7       0.120000
     51 H021        -4.7970     3.4120     2.0690 hn         1 7S7       0.467500
     52 H022        -6.3550     3.9290     1.5400 hn         1 7S7       0.467500
     53 H03         -7.9010     2.2760     0.4790 ha         1 7S7       0.118000
     54 H071        -7.9980    -0.7570    -1.7250 hc         1 7S7       0.045700
     55 H072        -8.9390    -0.7010    -0.2240 hc         1 7S7       0.045700
     56 H073        -8.8620     0.7210    -1.2790 hc         1 7S7       0.045700
@<TRIPOS>BOND
     1     1     2 1   
     2     1    29 1   
     3     1    30 1   
     4     2     3 ar  
     5     2     7 ar  
     6     3     4 ar  
     7     3    31 1   
     8     4     5 1   
     9     4     6 ar  
    10     5    32 1   
    11     5    33 1   
    12     5    34 1   
    13     6     8 ar  
    14     6    35 1   
    15     7     8 ar  
    16     8     9 1   
    17     9    10 1   
    18     9    36 1   
    19     9    37 1   
    20    10    11 1   
    21    10    13 1   
    22    10    38 1   
    23    11    12 1   
    24    11    39 1   
    25    11    40 1   
    26    12    41 1   
    27    12    42 1   
    28    13    14 ar  
    29    13    15 ar  
    30    14    18 ar  
    31    15    16 ar  
    32    15    43 1   
    33    16    17 ar  
    34    16    44 1   
    35    17    18 ar  
    36    17    45 1   
    37    18    19 1   
    38    19    20 1   
    39    19    46 1   
    40    19    47 1   
    41    20    21 1   
    42    20    48 1   
    43    20    49 1   
    44    21    22 ar  
    45    21    27 ar  
    46    22    23 ar  
    47    23    24 1   
    48    23    25 ar  
    49    24    51 1   
    50    24    52 1   
    51    25    26 ar  
    52    25    53 1   
    53    26    27 ar  
    54    26    28 1   
    55    27    50 1   
    56    28    54 1   
    57    28    55 1   
    58    28    56 1   
@<TRIPOS>SUBSTRUCTURE
     1 7S7         1 TEMP              0 ****  ****    0 ROOT
