@<TRIPOS>MOLECULE
7S9
   45    46     1     0     0
SMALL
abcg2


@<TRIPOS>ATOM
      1 C07         -4.8420     3.3520    -0.2710 c3         1 7S9      -0.053800
      2 C06         -2.8240     0.1590    -0.3910 ca         1 7S9       0.397300
      3 C05         -3.1340     1.5070    -0.4210 ca         1 7S9      -0.215000
      4 C04         -4.4570     1.9060    -0.2030 ca         1 7S9       0.002700
      5 C03         -5.3970     0.9270     0.0490 ca         1 7S9      -0.232000
      6 C02         -4.9930    -0.4180     0.0690 ca         1 7S9       0.601900
      7 N02         -5.8860    -1.4090     0.3640 nv         1 7S9      -1.056900
      8 N01         -3.7350    -0.7860    -0.1520 nb         1 7S9      -0.754000
      9 C09         -0.8260    -0.9930     0.6280 c3         1 7S9      -0.023100
     10 C16          3.0600    -2.4230    -0.1980 ca         1 7S9       0.334900
     11 C15          2.9650    -1.1840     0.4260 ca         1 7S9      -0.131300
     12 C14          1.6850    -0.7190     0.7110 ca         1 7S9      -0.075000
     13 C13          0.5710    -1.4780     0.3790 ca         1 7S9      -0.129300
     14 C12          0.8040    -2.7040    -0.2400 ca         1 7S9       0.335900
     15 N11          2.0120    -3.1700    -0.5230 nb         1 7S9      -0.663000
     16 C18          4.3460     0.7870    -0.2380 c3         1 7S9       0.166800
     17 N19          5.5740     1.5340    -0.0490 n3         1 7S9      -0.713600
     18 C20          5.8100     2.4220    -1.1670 c3         1 7S9       0.149600
     19 C21          5.5930     2.2700     1.1970 c3         1 7S9       0.149600
     20 H071        -5.0730     3.6340    -1.3010 hc         1 7S9       0.046367
     21 H072        -5.7240     3.5650     0.3310 hc         1 7S9       0.046367
     22 H073        -4.0320     3.9970     0.0650 hc         1 7S9       0.046367
     23 H05         -2.3600     2.2410    -0.6120 ha         1 7S9       0.121000
     24 H081        -1.4090    -1.0330    -1.4450 hc         1 7S9       0.054700
     25 H082        -0.7860     0.5200    -0.9140 hc         1 7S9       0.054700
     26 H03         -6.4330     1.1850     0.2340 ha         1 7S9       0.119000
     27 H021        -6.8630    -1.2140     0.2240 hn         1 7S9       0.469500
     28 H022        -5.6110    -2.3440     0.1140 hn         1 7S9       0.469500
     29 H091        -0.8290    -0.2850     1.4600 hc         1 7S9       0.059700
     30 H092        -1.4660    -1.8290     0.9190 hc         1 7S9       0.059700
     31 H16          4.0380    -2.8290    -0.4390 h4         1 7S9       0.018100
     32 H14          1.5540     0.2390     1.2050 ha         1 7S9       0.115000
     33 H171         4.1200    -0.0070     1.7700 hc         1 7S9       0.056700
     34 H172         5.0770    -1.0080     0.6900 hc         1 7S9       0.056700
     35 H12         -0.0360    -3.3380    -0.5120 h4         1 7S9       0.021100
     36 H181         4.3560     0.3740    -1.2510 h1         1 7S9       0.032700
     37 H182         3.4570     1.4400    -0.1780 h1         1 7S9       0.032700
     38 H201         5.0320     3.1930    -1.2820 h1         1 7S9       0.030367
     39 H202         6.7650     2.9340    -1.0430 h1         1 7S9       0.030367
     40 H203         5.8550     1.8540    -2.0980 h1         1 7S9       0.030367
     41 H211         5.5210     1.6000     2.0530 h1         1 7S9       0.030367
     42 H212         6.5350     2.8120     1.2890 h1         1 7S9       0.030367
     43 H213         4.7760     3.0060     1.2760 h1         1 7S9       0.030367
     44 C08         -1.4180    -0.3190    -0.6160 c3         1 7S9      -0.123700
     45 C17          4.1880    -0.3760     0.7440 c3         1 7S9      -0.028100
@<TRIPOS>BOND
     1     1     4 1   
     2     1    20 1   
     3     1    21 1   
     4     1    22 1   
     5     2     3 ar  
     6     2     8 ar  
     7     2    44 1   
     8     3     4 ar  
     9     3    23 1   
    10     4     5 ar  
    11     5     6 ar  
    12     5    26 1   
    13     6     7 1   
    14     6     8 ar  
    15     7    27 1   
    16     7    28 1   
    17     9    13 1   
    18     9    29 1   
    19     9    30 1   
    20     9    44 1   
    21    10    11 ar  
    22    10    15 ar  
    23    10    31 1   
    24    11    12 ar  
    25    11    45 1   
    26    12    13 ar  
    27    12    32 1   
    28    13    14 ar  
    29    14    15 ar  
    30    14    35 1   
    31    16    17 1   
    32    16    36 1   
    33    16    37 1   
    34    16    45 1   
    35    17    18 1   
    36    17    19 1   
    37    18    38 1   
    38    18    39 1   
    39    18    40 1   
    40    19    41 1   
    41    19    42 1   
    42    19    43 1   
    43    24    44 1   
    44    25    44 1   
    45    33    45 1   
    46    34    45 1   
@<TRIPOS>SUBSTRUCTURE
     1 7S9         1 TEMP              0 ****  ****    0 ROOT
