@<TRIPOS>MOLECULE
7S9
   45    46     1     0     0
SMALL
No Charge or Current Charge


@<TRIPOS>ATOM
      1 C07         -4.8230     3.1250     0.9090 c3         1 7S9      -0.053800
      2 C06         -2.8180     0.1350    -0.4120 ca         1 7S9       0.397300
      3 C05         -3.1180     1.3710     0.1930 ca         1 7S9      -0.215000
      4 C04         -4.4540     1.7980     0.2690 ca         1 7S9       0.002700
      5 C03         -5.4310     0.9520    -0.2760 ca         1 7S9      -0.232000
      6 C02         -5.0210    -0.2540    -0.8490 ca         1 7S9       0.601900
      7 N02         -5.8610    -1.1310    -1.4020 nv         1 7S9      -1.056900
      8 N01         -3.7680    -0.6740    -0.9310 nb         1 7S9      -0.754000
      9 C09         -0.9070    -1.0300     0.8060 c3         1 7S9      -0.023100
     10 C16          3.1170    -2.4540     0.5280 ca         1 7S9       0.334900
     11 C15          2.9180    -1.0780     0.7590 ca         1 7S9      -0.131300
     12 C14          1.6000    -0.5950     0.8550 ca         1 7S9      -0.075000
     13 C13          0.5370    -1.5060     0.7150 ca         1 7S9      -0.129300
     14 C12          0.8380    -2.8640     0.4850 ca         1 7S9       0.335900
     15 N11          2.1020    -3.3390     0.3920 nb         1 7S9      -0.663000
     16 C18          4.3280     0.7050    -0.3860 c3         1 7S9       0.166800
     17 N19          5.5630     1.5310    -0.3910 n3         1 7S9      -0.713600
     18 C20          5.8390     2.1080    -1.7270 c3         1 7S9       0.149600
     19 C21          5.5980     2.5650     0.6710 c3         1 7S9       0.149600
     20 H071        -4.7860     3.9370     0.1730 hc         1 7S9       0.046367
     21 H072        -5.8370     3.0980     1.3270 hc         1 7S9       0.046367
     22 H073        -4.1360     3.3790     1.7240 hc         1 7S9       0.046367
     23 H05         -2.3190     1.9850     0.5980 ha         1 7S9       0.121000
     24 H081        -1.2690    -1.0650    -1.3300 hc         1 7S9       0.054700
     25 H082        -0.7190     0.4880    -0.7290 hc         1 7S9       0.054700
     26 H03         -6.4820     1.2230    -0.2530 ha         1 7S9       0.119000
     27 H021        -6.7620    -0.7830    -1.7090 hn         1 7S9       0.469500
     28 H022        -5.4240    -1.8380    -1.9810 hn         1 7S9       0.469500
     29 H091        -1.0140    -0.3220     1.6370 hc         1 7S9       0.059700
     30 H092        -1.5720    -1.8730     1.0350 hc         1 7S9       0.059700
     31 H16          4.1240    -2.8640     0.4450 h4         1 7S9       0.018100
     32 H14          1.4060     0.4610     1.0310 ha         1 7S9       0.115000
     33 H171         3.9340     0.5400     1.7480 hc         1 7S9       0.056700
     34 H172         5.0170    -0.6920     1.1190 hc         1 7S9       0.056700
     35 H12          0.0410    -3.5980     0.3700 h4         1 7S9       0.021100
     36 H181         4.3670     0.0000    -1.2290 h1         1 7S9       0.032700
     37 H182         3.4490     1.3440    -0.5480 h1         1 7S9       0.032700
     38 H201         5.0490     2.8120    -2.0200 h1         1 7S9       0.030367
     39 H202         6.7980     2.6440    -1.7280 h1         1 7S9       0.030367
     40 H203         5.8950     1.3170    -2.4870 h1         1 7S9       0.030367
     41 H211         5.5560     2.1120     1.6700 h1         1 7S9       0.030367
     42 H212         6.5290     3.1460     0.6150 h1         1 7S9       0.030367
     43 H213         4.7540     3.2600     0.5700 h1         1 7S9       0.030367
     44 C08         -1.3810    -0.3560    -0.5000 c3         1 7S9      -0.123700
     45 C17          4.1020    -0.1290     0.8960 c3         1 7S9      -0.028100
@<TRIPOS>BOND
     1     1     4 1   
     2     1    20 1   
     3     1    21 1   
     4     1    22 1   
     5     2     3 ar  
     6     2     8 ar  
     7     2    44 1   
     8     3     4 ar  
     9     3    23 1   
    10     4     5 ar  
    11     5     6 ar  
    12     5    26 1   
    13     6     7 1   
    14     6     8 ar  
    15     7    27 1   
    16     7    28 1   
    17     9    13 1   
    18     9    29 1   
    19     9    30 1   
    20     9    44 1   
    21    10    11 ar  
    22    10    15 ar  
    23    10    31 1   
    24    11    12 ar  
    25    11    45 1   
    26    12    13 ar  
    27    12    32 1   
    28    13    14 ar  
    29    14    15 ar  
    30    14    35 1   
    31    16    17 1   
    32    16    36 1   
    33    16    37 1   
    34    16    45 1   
    35    17    18 1   
    36    17    19 1   
    37    18    38 1   
    38    18    39 1   
    39    18    40 1   
    40    19    41 1   
    41    19    42 1   
    42    19    43 1   
    43    24    44 1   
    44    25    44 1   
    45    33    45 1   
    46    34    45 1   
@<TRIPOS>SUBSTRUCTURE
     1 7S9         1 TEMP              0 ****  ****    0 ROOT
