@<TRIPOS>MOLECULE
7SB
   30    32     1     0     0
SMALL
No Charge or Current Charge


@<TRIPOS>ATOM
      1 Cl          -6.4660     1.4050    -0.1790 cl         1 7SB      -0.205000
      2 CAB          6.0560     2.0060    -0.1180 cc         1 7SB      -0.191000
      3 CAC          6.6600     0.7770    -0.1880 cd         1 7SB       0.141900
      4 CAD          4.6700     1.7740    -0.0180 cc         1 7SB      -0.110000
      5 CAE         -4.2040     0.2990    -1.2700 ca         1 7SB      -0.108000
      6 CAF         -4.4130     0.1600     1.1500 ca         1 7SB      -0.108000
      7 CAG         -2.9700    -0.3730    -1.2030 ca         1 7SB      -0.084000
      8 CAH         -3.1800    -0.5120     1.2190 ca         1 7SB      -0.084000
      9 CAI         -1.1160    -1.5090     0.1160 c3         1 7SB       0.255100
     10 NAJ          3.1330    -1.6460     0.0280 na         1 7SB      -0.185700
     11 NAK          2.0640     0.2890     0.1480 nc         1 7SB      -0.732000
     12 NAL         -0.0340    -0.5410     0.2880 nu         1 7SB      -0.885100
     13 NAM          1.7990    -1.9910     0.1210 nd         1 7SB      -0.591800
     14 OAN          5.7350    -0.2450    -0.1390 os         1 7SB      -0.248000
     15 CAO         -4.9240     0.5640    -0.0940 ca         1 7SB       0.126000
     16 CAP         -2.4520    -0.7830     0.0420 ca         1 7SB      -0.102300
     17 CAQ          3.2580    -0.2660     0.0470 cd         1 7SB       0.428500
     18 CAR          4.5280     0.4130    -0.0350 cd         1 7SB       0.065000
     19 CAS          1.2750    -0.7910     0.1850 cc         1 7SB       0.766900
     20 HAC          7.7040     0.5040    -0.2720 h4         1 7SB       0.057100
     21 HAD          3.8880     2.5250     0.0560 ha         1 7SB       0.161000
     22 HAE         -4.6010     0.6150    -2.2320 ha         1 7SB       0.130500
     23 HAF         -4.9720     0.3670     2.0590 ha         1 7SB       0.130500
     24 HAG         -2.4160    -0.5730    -2.1180 ha         1 7SB       0.122500
     25 HAH         -2.7880    -0.8210     2.1860 ha         1 7SB       0.122500
     26 HAI         -0.9640    -2.0910    -0.8030 h1         1 7SB       0.054700
     27 HAIA        -1.1280    -2.2160     0.9570 h1         1 7SB       0.054700
     28 HNAL        -0.2420     0.4460     0.2090 hn         1 7SB       0.482000
     29 HNAJ         3.8940    -2.3180    -0.0430 hn         1 7SB       0.387000
     30 HAB          6.5430     2.9760    -0.1340 ha         1 7SB       0.148000
@<TRIPOS>BOND
     1     1    15 1   
     2     2     3 2   
     3     2     4 1   
     4     2    30 1   
     5     3    14 1   
     6     3    20 1   
     7     4    18 2   
     8     4    21 1   
     9     5     7 ar  
    10     5    15 ar  
    11     5    22 1   
    12     6     8 ar  
    13     6    15 ar  
    14     6    23 1   
    15     7    16 ar  
    16     7    24 1   
    17     8    16 ar  
    18     8    25 1   
    19     9    12 1   
    20     9    16 1   
    21     9    26 1   
    22     9    27 1   
    23    10    13 1   
    24    10    17 1   
    25    10    29 1   
    26    11    17 2   
    27    11    19 1   
    28    12    19 1   
    29    12    28 1   
    30    13    19 2   
    31    14    18 1   
    32    17    18 1   
@<TRIPOS>SUBSTRUCTURE
     1 7SB         1 TEMP              0 ****  ****    0 ROOT
