@<TRIPOS>MOLECULE
7SB
   30    32     1     0     0
SMALL
bcc


@<TRIPOS>ATOM
      1 CL          -6.7010     0.7790    -0.4190 cl         1 7SB      -0.113400
      2 CAB          6.4000     1.7680    -0.0460 cc         1 7SB      -0.274300
      3 CAC          6.7360     0.4690    -0.2350 cd         1 7SB       0.251600
      4 CAD          4.9800     1.7990     0.0540 cc         1 7SB      -0.193300
      5 CAE         -4.2320     0.1180    -1.2940 ca         1 7SB      -0.126000
      6 CAF         -4.6520    -0.1580     1.0680 ca         1 7SB      -0.126000
      7 CAG         -2.9390    -0.3410    -1.1090 ca         1 7SB      -0.102000
      8 CAH         -3.3510    -0.6180     1.2320 ca         1 7SB      -0.102000
      9 CAI         -1.0730    -1.2080     0.3330 c3         1 7SB       0.255100
     10 NAJ          3.0080    -1.3850    -0.1970 na         1 7SB      -0.135400
     11 NAK          2.1270     0.5790     0.0790 nc         1 7SB      -0.732000
     12 NAL         -0.1410    -0.1260     0.0900 nu         1 7SB      -0.829900
     13 NAM          1.6820    -1.6150    -0.1290 nd         1 7SB      -0.591800
     14 OAN          5.6310    -0.3020    -0.2580 os         1 7SB      -0.336800
     15 CAO         -5.0790     0.2050    -0.1970 ca         1 7SB       0.034400
     16 CAP         -2.4830    -0.7200     0.1520 ca         1 7SB      -0.102300
     17 CAQ          3.2590    -0.0830    -0.0650 cd         1 7SB       0.428500
     18 CAR          4.5700     0.5110    -0.0820 cd         1 7SB       0.174700
     19 CAS          1.1950    -0.4000     0.0280 cc         1 7SB       0.766900
     20 HAC          7.6790    -0.0360    -0.3650 h4         1 7SB       0.057100
     21 HAD          4.3490     2.6590     0.2080 ha         1 7SB       0.179000
     22 HAE         -4.5780     0.4020    -2.2790 ha         1 7SB       0.148500
     23 HAF         -5.3160    -0.0820     1.9180 ha         1 7SB       0.148500
     24 HAG         -2.2770    -0.4090    -1.9640 ha         1 7SB       0.140500
     25 HAH         -3.0140    -0.8990     2.2220 ha         1 7SB       0.140500
     26 HAI         -0.8670    -2.0050    -0.3830 h1         1 7SB       0.054700
     27 HAIA        -0.9540    -1.6430     1.3330 h1         1 7SB       0.054700
     28 HNAL        -0.3530     0.7330     0.5760 hn         1 7SB       0.426800
     29 HNAJ         3.6530    -2.1500    -0.3200 hn         1 7SB       0.336700
     30 HAB          7.0790     2.6010     0.0140 ha         1 7SB       0.166000
@<TRIPOS>BOND
     1     1    15 1   
     2     2     3 2   
     3     2     4 1   
     4     2    30 1   
     5     3    14 1   
     6     3    20 1   
     7     4    18 2   
     8     4    21 1   
     9     5     7 ar  
    10     5    15 ar  
    11     5    22 1   
    12     6     8 ar  
    13     6    15 ar  
    14     6    23 1   
    15     7    16 ar  
    16     7    24 1   
    17     8    16 ar  
    18     8    25 1   
    19     9    12 1   
    20     9    16 1   
    21     9    26 1   
    22     9    27 1   
    23    10    13 1   
    24    10    17 1   
    25    10    29 1   
    26    11    17 2   
    27    11    19 1   
    28    12    19 1   
    29    12    28 1   
    30    13    19 2   
    31    14    18 1   
    32    17    18 1   
@<TRIPOS>SUBSTRUCTURE
     1 7SB         1 TEMP              0 ****  ****    0 ROOT
