@<TRIPOS>MOLECULE
7SC
   49    52     1     0     0
SMALL
abcg2


@<TRIPOS>ATOM
      1 N12        -26.7900    -0.7550   171.6800 na         1 7SC       0.011000
      2 C14        -25.5670     0.9780   170.9300 cc         1 7SC      -0.079000
      3 C15        -26.4810     0.5700   169.9040 cc         1 7SC      -0.297600
      4 C18        -28.5500    -0.7210   168.6260 cc         1 7SC       0.745800
      5 C20        -30.3220    -2.4130   168.4490 c3         1 7SC       0.250800
      6 C21        -31.2740    -2.0500   169.5990 c3         1 7SC      -0.057100
      7 C22        -31.9670    -3.2570   170.1740 ca         1 7SC      -0.079300
      8 C23        -33.3590    -3.3330   170.2130 ca         1 7SC      -0.112000
      9 C24        -34.0010    -4.4410   170.7580 ca         1 7SC      -0.104500
     10 O01        -29.2130    -0.0490   172.7980 o          1 7SC      -0.545100
     11 C02        -28.8830    -1.2180   172.8570 c          1 7SC       0.595100
     12 N03        -29.7240    -2.2430   173.1920 ns         1 7SC      -0.147000
     13 C04        -31.0860    -2.1790   173.4600 ca         1 7SC       0.033000
     14 C05        -31.8940    -1.0810   173.1510 ca         1 7SC      -0.183000
     15 C06        -33.2520    -1.1520   173.4100 ca         1 7SC       0.358900
     16 N07        -33.8610    -2.2150   173.9430 nb         1 7SC      -0.673000
     17 C08        -33.0970    -3.2640   174.2440 ca         1 7SC       0.375900
     18 C09        -31.7290    -3.2850   174.0320 ca         1 7SC       0.006000
     19 CL10       -30.8220    -4.7020   174.4820 cl         1 7SC      -0.205000
     20 C11        -27.4470    -1.6740   172.5720 c3         1 7SC       0.010600
     21 C13        -25.7900     0.1610   172.0020 cd         1 7SC      -0.189000
     22 C16        -27.2200    -0.5040   170.4110 cd         1 7SC       0.179400
     23 N17        -28.2270    -1.1750   169.8180 nd         1 7SC      -0.728100
     24 N19        -29.5650    -1.2800   167.9390 nu         1 7SC      -0.917400
     25 C25        -33.2570    -5.5010   171.2620 ca         1 7SC      -0.111000
     26 C26        -31.8670    -5.4400   171.2250 ca         1 7SC      -0.104500
     27 C27        -31.2300    -4.3260   170.6940 ca         1 7SC      -0.112000
     28 N28        -27.8830     0.3270   168.0340 ns         1 7SC      -0.457400
     29 C29        -26.8160     1.0450   168.6030 c          1 7SC       0.622600
     30 O30        -26.3050     1.9730   167.9710 o          1 7SC      -0.550000
     31 H141       -24.8410     1.7720   170.8770 ha         1 7SC       0.148000
     32 H201       -30.8870    -2.8190   167.6110 h1         1 7SC       0.057200
     33 H202       -29.6200    -3.1790   168.7780 h1         1 7SC       0.057200
     34 H211       -30.6890    -1.5540   170.3740 hc         1 7SC       0.063200
     35 H212       -32.0150    -1.3330   169.2410 hc         1 7SC       0.063200
     36 H231       -33.9450    -2.5100   169.8210 ha         1 7SC       0.110500
     37 H241       -35.0830    -4.4740   170.7890 ha         1 7SC       0.115000
     38 H031       -29.3130    -3.1640   173.2620 hn         1 7SC       0.165000
     39 H051       -31.4660    -0.2000   172.7060 ha         1 7SC       0.158000
     40 H061       -33.8830    -0.3050   173.1660 h4         1 7SC       0.025100
     41 H081       -33.5810    -4.1330   174.6730 h4         1 7SC       0.032100
     42 H112       -27.4470    -2.6790   172.1480 h1         1 7SC       0.079200
     43 H111       -26.9000    -1.7040   173.5150 h1         1 7SC       0.079200
     44 H131       -25.3250     0.1300   172.9730 h4         1 7SC       0.149000
     45 H191       -29.8350    -0.8810   167.0550 hn         1 7SC       0.501000
     46 H251       -33.7540    -6.3640   171.6880 ha         1 7SC       0.114000
     47 H261       -31.2770    -6.2540   171.6270 ha         1 7SC       0.115000
     48 H271       -30.1480    -4.2800   170.6970 ha         1 7SC       0.110500
     49 H281       -28.1640     0.6320   167.1110 hn         1 7SC       0.321500
@<TRIPOS>BOND
     1     1    20 1   
     2     1    21 1   
     3     1    22 1   
     4     2     3 1   
     5     2    21 2   
     6     2    31 1   
     7     3    22 2   
     8     3    29 1   
     9     4    23 2   
    10     4    24 1   
    11     4    28 1   
    12     5     6 1   
    13     5    24 1   
    14     5    32 1   
    15     5    33 1   
    16     6     7 1   
    17     6    34 1   
    18     6    35 1   
    19     7     8 ar  
    20     7    27 ar  
    21     8     9 ar  
    22     8    36 1   
    23     9    25 ar  
    24     9    37 1   
    25    10    11 2   
    26    11    12 1   
    27    11    20 1   
    28    12    13 1   
    29    12    38 1   
    30    13    14 ar  
    31    13    18 ar  
    32    14    15 ar  
    33    14    39 1   
    34    15    16 ar  
    35    15    40 1   
    36    16    17 ar  
    37    17    18 ar  
    38    17    41 1   
    39    18    19 1   
    40    20    42 1   
    41    20    43 1   
    42    21    44 1   
    43    22    23 1   
    44    24    45 1   
    45    25    26 ar  
    46    25    46 1   
    47    26    27 ar  
    48    26    47 1   
    49    27    48 1   
    50    28    29 1   
    51    28    49 1   
    52    29    30 2   
@<TRIPOS>SUBSTRUCTURE
     1 7SC         1 TEMP              0 ****  ****    0 ROOT
