@<TRIPOS>MOLECULE
7SC
   49    52     1     0     0
SMALL
No Charge or Current Charge


@<TRIPOS>ATOM
      1 N12        -26.6770    -0.3500   171.8690 na         1 7SC       0.011000
      2 C14        -25.5160     1.1420   170.6890 cc         1 7SC      -0.079000
      3 C15        -26.5010     0.5740   169.8530 cc         1 7SC      -0.297600
      4 C18        -28.4880    -0.7900   168.7630 cc         1 7SC       0.745800
      5 C20        -30.2380    -2.6150   168.6760 c3         1 7SC       0.250800
      6 C21        -31.3750    -2.1820   169.6280 c3         1 7SC      -0.057100
      7 C22        -32.2460    -3.3400   170.1150 ca         1 7SC      -0.079300
      8 C23        -33.6500    -3.2130   170.1050 ca         1 7SC      -0.112000
      9 C24        -34.4650    -4.2660   170.5560 ca         1 7SC      -0.104500
     10 O01        -29.0810     0.2220   173.5270 o          1 7SC      -0.545100
     11 C02        -28.6630    -0.9040   173.2730 c          1 7SC       0.595100
     12 N03        -29.4680    -2.0350   173.2580 ns         1 7SC      -0.147000
     13 C04        -30.8700    -2.1930   173.4360 ca         1 7SC       0.033000
     14 C05        -31.7900    -1.1320   173.3020 ca         1 7SC      -0.183000
     15 C06        -33.1610    -1.3740   173.4890 ca         1 7SC       0.358900
     16 N07        -33.6600    -2.5920   173.7950 nb         1 7SC      -0.673000
     17 C08        -32.7810    -3.6180   173.9040 ca         1 7SC       0.375900
     18 C09        -31.3890    -3.4670   173.7360 ca         1 7SC       0.006000
     19 Cl10       -30.3190    -4.8630   173.9190 cl         1 7SC      -0.205000
     20 C11        -27.1820    -1.1710   172.9780 c3         1 7SC       0.010600
     21 C13        -25.6180     0.5730   171.9370 cd         1 7SC      -0.189000
     22 C16        -27.1960    -0.3380   170.5730 cd         1 7SC       0.179400
     23 N17        -28.2400    -1.0750   170.0320 nd         1 7SC      -0.728100
     24 N19        -29.5030    -1.4490   168.1520 nu         1 7SC      -0.917400
     25 C25        -33.8830    -5.4550   171.0250 ca         1 7SC      -0.111000
     26 C26        -32.4850    -5.5880   171.0450 ca         1 7SC      -0.104500
     27 C27        -31.6700    -4.5350   170.5960 ca         1 7SC      -0.112000
     28 N28        -27.8220     0.1190   168.0090 ns         1 7SC      -0.457400
     29 C29        -26.7900     0.8650   168.4590 c          1 7SC       0.622600
     30 O30        -26.2000     1.6740   167.7620 o          1 7SC      -0.550000
     31 H141       -24.8050     1.9060   170.3850 ha         1 7SC       0.148000
     32 H201       -30.6750    -3.1820   167.8410 h1         1 7SC       0.057200
     33 H202       -29.5480    -3.2890   169.2010 h1         1 7SC       0.057200
     34 H211       -30.9410    -1.6670   170.4920 hc         1 7SC       0.063200
     35 H212       -31.9930    -1.4390   169.1100 hc         1 7SC       0.063200
     36 H231       -34.1140    -2.2960   169.7480 ha         1 7SC       0.110500
     37 H241       -35.5470    -4.1580   170.5450 ha         1 7SC       0.115000
     38 H031       -28.9770    -2.9020   173.0850 hn         1 7SC       0.165000
     39 H051       -31.4740    -0.1270   173.0450 ha         1 7SC       0.158000
     40 H061       -33.8830    -0.5650   173.3900 h4         1 7SC       0.025100
     41 H081       -33.2050    -4.5920   174.1420 h4         1 7SC       0.032100
     42 H112       -27.0490    -2.2280   172.7200 h1         1 7SC       0.079200
     43 H111       -26.6100    -0.9610   173.8880 h1         1 7SC       0.079200
     44 H131       -25.0450     0.7510   172.8410 h4         1 7SC       0.149000
     45 H191       -29.6300    -1.2150   167.1720 hn         1 7SC       0.501000
     46 H251       -34.5130    -6.2690   171.3760 ha         1 7SC       0.114000
     47 H261       -32.0320    -6.5050   171.4150 ha         1 7SC       0.115000
     48 H271       -30.5900    -4.6520   170.6360 ha         1 7SC       0.110500
     49 H281       -28.0910     0.2650   167.0520 hn         1 7SC       0.321500
@<TRIPOS>BOND
     1     1    20 1   
     2     1    21 1   
     3     1    22 1   
     4     2     3 1   
     5     2    21 2   
     6     2    31 1   
     7     3    22 2   
     8     3    29 1   
     9     4    23 2   
    10     4    24 1   
    11     4    28 1   
    12     5     6 1   
    13     5    24 1   
    14     5    32 1   
    15     5    33 1   
    16     6     7 1   
    17     6    34 1   
    18     6    35 1   
    19     7     8 ar  
    20     7    27 ar  
    21     8     9 ar  
    22     8    36 1   
    23     9    25 ar  
    24     9    37 1   
    25    10    11 2   
    26    11    12 1   
    27    11    20 1   
    28    12    13 1   
    29    12    38 1   
    30    13    14 ar  
    31    13    18 ar  
    32    14    15 ar  
    33    14    39 1   
    34    15    16 ar  
    35    15    40 1   
    36    16    17 ar  
    37    17    18 ar  
    38    17    41 1   
    39    18    19 1   
    40    20    42 1   
    41    20    43 1   
    42    21    44 1   
    43    22    23 1   
    44    24    45 1   
    45    25    26 ar  
    46    25    46 1   
    47    26    27 ar  
    48    26    47 1   
    49    27    48 1   
    50    28    29 1   
    51    28    49 1   
    52    29    30 2   
@<TRIPOS>SUBSTRUCTURE
     1 7SC         1 TEMP              0 ****  ****    0 ROOT
