@<TRIPOS>MOLECULE
7SD
   56    59     1     0     0
SMALL
No Charge or Current Charge


@<TRIPOS>ATOM
      1 C01         -4.9340     2.9300    -0.4310 c3         1 7SD      -0.058800
      2 C02         -5.8970     1.7890    -0.1220 ca         1 7SD       0.019700
      3 C04         -7.9100     0.9750     0.9070 ca         1 7SD       0.611900
      4 N05         -9.0380     1.1000     1.6060 nv         1 7SD      -1.055900
      5 C07         -6.6240    -0.5320    -0.2190 ca         1 7SD       0.423300
      6 C09         -5.6760     0.4640    -0.5670 ca         1 7SD      -0.228300
      7 C10         -4.4440     0.1150    -1.3990 c3         1 7SD       0.168300
      8 C12         -2.0890    -0.6220    -0.9920 c          1 7SD       0.650700
      9 C14         -1.1020    -0.8730     0.0700 cc         1 7SD      -0.284600
     10 C15         -1.2880    -0.7330     1.4520 cc         1 7SD       0.265900
     11 C19          3.1700    -0.9690     0.8540 ca         1 7SD      -0.109300
     12 C20          4.2620    -1.6150     0.2440 ca         1 7SD      -0.084500
     13 C22          5.2030     0.5410    -0.4170 ca         1 7SD      -0.096300
     14 C23          6.2860     1.3710    -1.1100 c3         1 7SD       0.134900
     15 C26          9.6110    -0.0630    -1.1160 cc         1 7SD      -0.228000
     16 C27          9.5200     0.6290     0.0980 cc         1 7SD       0.237900
     17 C29          4.1100     1.1860     0.1920 ca         1 7SD      -0.088500
     18 C31          0.1840    -1.2920    -0.1100 cd         1 7SD      -0.097000
     19 C03         -7.0530     2.0360     0.6330 ca         1 7SD      -0.244000
     20 N06         -7.7310    -0.2700     0.5090 nb         1 7SD      -0.756000
     21 C08         -6.4640    -1.9870    -0.6360 c3         1 7SD      -0.153400
     22 N11         -3.3140    -0.2050    -0.5360 ns         1 7SD      -0.505900
     23 O13         -1.8520    -0.7670    -2.1830 o          1 7SD      -0.625100
     24 N16         -0.2190    -1.0300     2.1630 nd         1 7SD      -0.523800
     25 N17          0.7070    -1.3790     1.1840 na         1 7SD       0.131800
     26 C21          5.2690    -0.8670    -0.3890 ca         1 7SD      -0.088500
     27 N24          7.6660     0.8960    -0.8840 na         1 7SD       0.126800
     28 C25          8.4220     0.1050    -1.7580 cd         1 7SD      -0.175000
     29 N28          8.3600     1.2260     0.2770 nd         1 7SD      -0.522800
     30 C30          3.1020     0.4380     0.8260 ca         1 7SD      -0.084500
     31 H011        -4.9260     3.1600    -1.5030 hc         1 7SD       0.049700
     32 H013        -5.2120     3.8490     0.0990 hc         1 7SD       0.049700
     33 H012        -3.9100     2.6800    -0.1300 hc         1 7SD       0.049700
     34 H052        -9.6710     0.3140     1.5230 hn         1 7SD       0.472000
     35 H051        -9.4610     2.0200     1.6540 hn         1 7SD       0.472000
     36 H101        -4.6450    -0.7410    -2.0560 h1         1 7SD       0.054200
     37 H102        -4.1680     0.9550    -2.0480 h1         1 7SD       0.054200
     38 H151        -2.1830    -0.4190     1.9730 h4         1 7SD       0.036100
     39 H181         2.1900    -2.8480     1.2830 h1         1 7SD       0.072700
     40 H182         2.2000    -1.7000     2.6280 h1         1 7SD       0.072700
     41 H201         4.3330    -2.7010     0.2570 ha         1 7SD       0.120000
     42 H232         6.0960     1.3700    -2.1900 h1         1 7SD       0.068700
     43 H231         6.2270     2.4120    -0.7700 h1         1 7SD       0.068700
     44 H271        10.2790     0.7140     0.8640 h4         1 7SD       0.036100
     45 H291         4.0380     2.2720     0.1780 ha         1 7SD       0.118500
     46 H311         0.7520    -1.5210    -1.0050 h4         1 7SD       0.170000
     47 H031        -7.2790     3.0320     1.0020 ha         1 7SD       0.121000
     48 H083        -5.4780    -2.3720    -0.3500 hc         1 7SD       0.054700
     49 H082        -7.2140    -2.6340    -0.1660 hc         1 7SD       0.054700
     50 H081        -6.5700    -2.0950    -1.7210 hc         1 7SD       0.054700
     51 H111        -3.4270    -0.1040     0.4630 hn         1 7SD       0.318500
     52 H211         6.1000    -1.3890    -0.8590 ha         1 7SD       0.118500
     53 H251         8.0600    -0.2520    -2.7160 h4         1 7SD       0.150000
     54 H301         2.2690     0.9570     1.2950 ha         1 7SD       0.120000
     55 C18          2.0780    -1.7880     1.5420 c3         1 7SD       0.133900
     56 H261        10.4770    -0.6190    -1.4590 ha         1 7SD       0.145000
@<TRIPOS>BOND
     1     1     2 1   
     2     1    31 1   
     3     1    32 1   
     4     1    33 1   
     5     2     6 ar  
     6     2    19 ar  
     7     3     4 1   
     8     3    19 ar  
     9     3    20 ar  
    10     4    34 1   
    11     4    35 1   
    12     5     6 ar  
    13     5    20 ar  
    14     5    21 1   
    15     6     7 1   
    16     7    22 1   
    17     7    36 1   
    18     7    37 1   
    19     8     9 1   
    20     8    22 1   
    21     8    23 2   
    22     9    10 1   
    23     9    18 2   
    24    10    24 2   
    25    10    38 1   
    26    11    12 ar  
    27    11    30 ar  
    28    11    55 1   
    29    12    26 ar  
    30    12    41 1   
    31    13    14 1   
    32    13    17 ar  
    33    13    26 ar  
    34    14    27 1   
    35    14    42 1   
    36    14    43 1   
    37    15    16 1   
    38    15    28 2   
    39    15    56 1   
    40    16    29 2   
    41    16    44 1   
    42    17    30 ar  
    43    17    45 1   
    44    18    25 1   
    45    18    46 1   
    46    19    47 1   
    47    21    48 1   
    48    21    49 1   
    49    21    50 1   
    50    22    51 1   
    51    24    25 1   
    52    25    55 1   
    53    26    52 1   
    54    27    28 1   
    55    27    29 1   
    56    28    53 1   
    57    30    54 1   
    58    39    55 1   
    59    40    55 1   
@<TRIPOS>SUBSTRUCTURE
     1 7SD         1 TEMP              0 ****  ****    0 ROOT
