@<TRIPOS>MOLECULE
7SD
   56    59     1     0     0
SMALL
abcg2


@<TRIPOS>ATOM
      1 C01         -4.8060     2.4010    -1.7850 c3         1 7SD      -0.058800
      2 C02         -5.7060     1.6430    -0.8550 ca         1 7SD       0.019700
      3 C04         -7.5260     1.5910     0.7090 ca         1 7SD       0.611900
      4 N05         -8.4800     2.2220     1.4520 nv         1 7SD      -1.055900
      5 C07         -6.4470    -0.3720     0.2110 ca         1 7SD       0.423300
      6 C09         -5.5760     0.2560    -0.6770 ca         1 7SD      -0.228300
      7 C10         -4.5090    -0.5260    -1.3890 c3         1 7SD       0.168300
      8 C12         -2.2400    -1.3330    -0.9200 c          1 7SD       0.650700
      9 C14         -1.1120    -1.3280     0.0230 cc         1 7SD      -0.284600
     10 C15         -0.9190    -0.6550     1.2470 cc         1 7SD       0.265900
     11 C19          3.1910    -1.1910     0.8250 ca         1 7SD      -0.109300
     12 C20          3.6590    -1.0480    -0.4780 ca         1 7SD      -0.084500
     13 C22          5.0270     0.8240     0.1850 ca         1 7SD      -0.096300
     14 C23          6.0290     1.8930    -0.1610 c3         1 7SD       0.134900
     15 C26          9.1200     0.5330    -1.4050 cc         1 7SD      -0.228000
     16 C27          9.1490     0.3480    -0.0140 cc         1 7SD       0.237900
     17 C29          4.5620     0.6790     1.4860 ca         1 7SD      -0.088500
     18 C31          0.0540    -2.0490    -0.1460 cd         1 7SD      -0.097000
     19 C03         -6.6920     2.3120    -0.1570 ca         1 7SD      -0.244000
     20 N06         -7.3970     0.2790     0.8810 nb         1 7SD      -0.756000
     21 C08         -6.3620    -1.8500     0.4650 c3         1 7SD      -0.153400
     22 N11         -3.3150    -0.6130    -0.5620 ns         1 7SD      -0.505900
     23 O13         -2.1910    -1.9620    -1.9720 o          1 7SD      -0.625100
     24 N16          0.2530    -0.9430     1.7700 nd         1 7SD      -0.523800
     25 N17          0.8240    -1.7920     0.9160 na         1 7SD       0.131800
     26 C21          4.5650    -0.0500    -0.7960 ca         1 7SD      -0.088500
     27 N24          7.3380     1.3380    -0.4310 na         1 7SD       0.126800
     28 C25          7.9250     1.1760    -1.6320 cd         1 7SD      -0.175000
     29 N28          8.0650     0.8350     0.5610 nd         1 7SD      -0.522800
     30 C30          3.6480    -0.3180     1.8030 ca         1 7SD      -0.084500
     31 H011        -4.9590     2.0920    -2.8210 hc         1 7SD       0.049700
     32 H013        -4.9940     3.4710    -1.7270 hc         1 7SD       0.049700
     33 H012        -3.7540     2.2310    -1.5540 hc         1 7SD       0.049700
     34 H052        -9.2100     1.6410     1.8310 hn         1 7SD       0.472000
     35 H051        -8.7880     3.1300     1.1470 hn         1 7SD       0.472000
     36 H101        -4.8620    -1.5310    -1.6240 h1         1 7SD       0.054200
     37 H102        -4.2630    -0.0590    -2.3450 h1         1 7SD       0.054200
     38 H151        -1.5850     0.0190     1.7650 h4         1 7SD       0.036100
     39 H181         2.3320    -3.1410     0.5400 h1         1 7SD       0.072700
     40 H182         2.2510    -2.5580     2.1970 h1         1 7SD       0.072700
     41 H201         3.3140    -1.7220    -1.2540 ha         1 7SD       0.120000
     42 H232         5.7180     2.4390    -1.0520 h1         1 7SD       0.068700
     43 H231         6.1210     2.6160     0.6490 h1         1 7SD       0.068700
     44 H271         9.9210    -0.1140     0.5840 h4         1 7SD       0.036100
     45 H291         4.9130     1.3500     2.2610 ha         1 7SD       0.118500
     46 H311         0.3630    -2.7140    -0.9360 h4         1 7SD       0.170000
     47 H031        -6.8210     3.3810    -0.2740 ha         1 7SD       0.121000
     48 H083        -5.3490    -2.1590     0.7240 hc         1 7SD       0.054700
     49 H082        -7.0260    -2.1310     1.2800 hc         1 7SD       0.054700
     50 H081        -6.6550    -2.4230    -0.4180 hc         1 7SD       0.054700
     51 H111        -3.3220    -0.1200     0.3160 hn         1 7SD       0.318500
     52 H211         4.9160     0.0450    -1.8170 ha         1 7SD       0.118500
     53 H251         7.4640     1.5290    -2.5400 h4         1 7SD       0.150000
     54 H301         3.2950    -0.4160     2.8230 ha         1 7SD       0.120000
     55 C18          2.1780    -2.2540     1.1540 c3         1 7SD       0.133900
     56 H261         9.8600     0.2470    -2.1330 ha         1 7SD       0.145000
@<TRIPOS>BOND
     1     1     2 1   
     2     1    31 1   
     3     1    32 1   
     4     1    33 1   
     5     2     6 ar  
     6     2    19 ar  
     7     3     4 1   
     8     3    19 ar  
     9     3    20 ar  
    10     4    34 1   
    11     4    35 1   
    12     5     6 ar  
    13     5    20 ar  
    14     5    21 1   
    15     6     7 1   
    16     7    22 1   
    17     7    36 1   
    18     7    37 1   
    19     8     9 1   
    20     8    22 1   
    21     8    23 2   
    22     9    10 1   
    23     9    18 2   
    24    10    24 2   
    25    10    38 1   
    26    11    12 ar  
    27    11    30 ar  
    28    11    55 1   
    29    12    26 ar  
    30    12    41 1   
    31    13    14 1   
    32    13    17 ar  
    33    13    26 ar  
    34    14    27 1   
    35    14    42 1   
    36    14    43 1   
    37    15    16 1   
    38    15    28 2   
    39    15    56 1   
    40    16    29 2   
    41    16    44 1   
    42    17    30 ar  
    43    17    45 1   
    44    18    25 1   
    45    18    46 1   
    46    19    47 1   
    47    21    48 1   
    48    21    49 1   
    49    21    50 1   
    50    22    51 1   
    51    24    25 1   
    52    25    55 1   
    53    26    52 1   
    54    27    28 1   
    55    27    29 1   
    56    28    53 1   
    57    30    54 1   
    58    39    55 1   
    59    40    55 1   
@<TRIPOS>SUBSTRUCTURE
     1 7SD         1 TEMP              0 ****  ****    0 ROOT
