@<TRIPOS>MOLECULE
7SE
   27    29     1     0     0
SMALL
abcg2


@<TRIPOS>ATOM
      1 N1          23.9680    15.8660    -7.7870 ns         1 7SE      -0.483500
      2 N3          26.2200    19.1140    -9.1340 nc         1 7SE      -0.251400
      3 C4          25.1650    16.5220    -7.9210 c          1 7SE       0.569000
      4 C5          25.1980    17.9230    -7.3280 c6         1 7SE       0.015300
      5 C6          27.4120    19.6940    -9.3170 ca         1 7SE      -0.106000
      6 C7          28.1600    19.5300    -8.1300 ca         1 7SE      -0.106000
      7 C8          29.4670    20.0440    -8.0120 ca         1 7SE      -0.063000
      8 C10         29.2140    20.8690   -10.2960 ca         1 7SE      -0.107000
      9 C1          23.8580    18.6220    -7.4850 c6         1 7SE      -0.080400
     10 C2          22.7940    17.7800    -6.8010 c6         1 7SE      -0.167400
     11 C3          22.7800    16.3500    -7.2640 c          1 7SE       0.579000
     12 N2          26.2920    18.6600    -7.9140 na         1 7SE       0.328800
     13 O1          21.8160    15.6280    -7.1870 o          1 7SE      -0.502000
     14 O2          26.1200    16.0080    -8.4470 o          1 7SE      -0.480000
     15 N4          27.4010    18.8570    -7.2560 nc         1 7SE      -0.251400
     16 C9          29.9680    20.7030    -9.1000 ca         1 7SE      -0.107000
     17 C11         27.9450    20.3770   -10.4290 ca         1 7SE      -0.063000
     18 H1          23.9510    14.9070    -8.1190 hn         1 7SE       0.336500
     19 H2          25.4330    17.8220    -6.2640 h1         1 7SE       0.110700
     20 H4          29.6670    21.4030   -11.1210 ha         1 7SE       0.116000
     21 H5          23.9030    19.6090    -7.0270 hc         1 7SE       0.080700
     22 H6          23.6210    18.7570    -8.5410 hc         1 7SE       0.080700
     23 H7          21.8000    18.1960    -6.9600 hc         1 7SE       0.086200
     24 H8          22.9600    17.7680    -5.7190 hc         1 7SE       0.086200
     25 H9          30.9670    21.1170    -9.0590 ha         1 7SE       0.116000
     26 H10         27.3760    20.5040   -11.3390 ha         1 7SE       0.132000
     27 H3          30.0420    19.9220    -7.1040 ha         1 7SE       0.132000
@<TRIPOS>BOND
     1     1     3 1   
     2     1    11 1   
     3     1    18 1   
     4     2     5 2   
     5     2    12 1   
     6     3     4 1   
     7     3    14 2   
     8     4     9 1   
     9     4    12 1   
    10     4    19 1   
    11     5     6 ar  
    12     5    17 ar  
    13     6     7 ar  
    14     6    15 2   
    15     7    16 ar  
    16     7    27 1   
    17     8    16 ar  
    18     8    17 ar  
    19     8    20 1   
    20     9    10 1   
    21     9    21 1   
    22     9    22 1   
    23    10    11 1   
    24    10    23 1   
    25    10    24 1   
    26    11    13 2   
    27    12    15 1   
    28    16    25 1   
    29    17    26 1   
@<TRIPOS>SUBSTRUCTURE
     1 7SE         1 TEMP              0 ****  ****    0 ROOT
