@<TRIPOS>MOLECULE
7SE
   27    29     1     0     0
SMALL
No Charge or Current Charge


@<TRIPOS>ATOM
      1 N1          23.8490    15.9490    -8.0210 ns         1 7SE      -0.483500
      2 N3          26.3310    18.8520    -9.2160 nc         1 7SE      -0.251400
      3 C4          25.1200    16.4110    -7.8060 c          1 7SE       0.569000
      4 C5          25.2720    17.8140    -7.1850 c6         1 7SE       0.015300
      5 C6          27.5040    19.5510    -9.3450 ca         1 7SE      -0.106000
      6 C7          28.1520    19.6620    -8.1470 ca         1 7SE      -0.106000
      7 C8          29.3760    20.3410    -8.0400 ca         1 7SE      -0.063000
      8 C10         29.2640    20.7980   -10.4390 ca         1 7SE      -0.107000
      9 C1          23.9470    18.6350    -7.1430 c6         1 7SE      -0.080400
     10 C2          22.7430    17.7460    -6.7470 c6         1 7SE      -0.167400
     11 C3          22.6650    16.4520    -7.5630 c          1 7SE       0.579000
     12 N2          26.3530    18.5640    -7.8490 na         1 7SE       0.328800
     13 O1          21.6040    15.9200    -7.8410 o          1 7SE      -0.502000
     14 O2          26.0810    15.7170    -8.1020 o          1 7SE      -0.480000
     15 N4          27.4540    19.0440    -7.1410 nc         1 7SE      -0.251400
     16 C9          29.9340    20.9130    -9.2010 ca         1 7SE      -0.107000
     17 C11         28.0350    20.1110   -10.5170 ca         1 7SE      -0.063000
     18 H1          23.7830    15.0690    -8.5120 hn         1 7SE       0.336500
     19 H2          25.5820    17.6200    -6.1510 h1         1 7SE       0.110700
     20 H4          29.6950    21.2400   -11.3350 ha         1 7SE       0.116000
     21 H5          24.0460    19.4830    -6.4500 hc         1 7SE       0.080700
     22 H6          23.7470    19.0690    -8.1330 hc         1 7SE       0.080700
     23 H7          21.7800    18.2730    -6.7810 hc         1 7SE       0.086200
     24 H8          22.9050    17.4320    -5.7070 hc         1 7SE       0.086200
     25 H9          30.8820    21.4440    -9.1430 ha         1 7SE       0.116000
     26 H10         27.5110    20.0170   -11.4660 ha         1 7SE       0.132000
     27 H3          29.8840    20.4240    -7.0810 ha         1 7SE       0.132000
@<TRIPOS>BOND
     1     1     3 1   
     2     1    11 1   
     3     1    18 1   
     4     2     5 2   
     5     2    12 1   
     6     3     4 1   
     7     3    14 2   
     8     4     9 1   
     9     4    12 1   
    10     4    19 1   
    11     5     6 ar  
    12     5    17 ar  
    13     6     7 ar  
    14     6    15 2   
    15     7    16 ar  
    16     7    27 1   
    17     8    16 ar  
    18     8    17 ar  
    19     8    20 1   
    20     9    10 1   
    21     9    21 1   
    22     9    22 1   
    23    10    11 1   
    24    10    23 1   
    25    10    24 1   
    26    11    13 2   
    27    12    15 1   
    28    16    25 1   
    29    17    26 1   
@<TRIPOS>SUBSTRUCTURE
     1 7SE         1 TEMP              0 ****  ****    0 ROOT
