@<TRIPOS>MOLECULE
7SF
   18    18     1     0     0
SMALL
abcg2


@<TRIPOS>ATOM
      1 C37        -28.3600   -22.9420    -7.1880 ca         1 7SF      -0.221500
      2 S34        -29.8650   -23.5800    -7.9360 s6         1 7SF       1.261100
      3 O36        -30.3660   -24.5910    -6.9910 o          1 7SF      -0.686533
      4 C43        -28.1800   -23.0090    -5.8160 ca         1 7SF       0.028000
      5 C42        -27.0540   -22.4540    -5.2200 ca         1 7SF      -0.231300
      6 C44        -26.8720   -22.5350    -3.7320 c3         1 7SF       0.361300
      7 F47        -25.7540   -23.1920    -3.4030 f          1 7SF      -0.119000
      8 F46        -27.8840   -23.1710    -3.1350 f          1 7SF      -0.119000
      9 F45        -26.7970   -21.3220    -3.1740 f          1 7SF      -0.119000
     10 C40        -26.1060   -21.8290    -6.0290 ca         1 7SF       0.172000
     11 CL1        -24.6810   -21.1190    -5.3590 cl         1 7SF      -0.221000
     12 C39        -26.2810   -21.7630    -7.4010 ca         1 7SF      -0.150000
     13 C38        -27.4090   -22.3190    -7.9810 ca         1 7SF       0.012000
     14 O35        -29.4410   -24.1280    -9.2330 o          1 7SF      -0.686533
     15 H2         -28.9240   -23.5080    -5.2100 ha         1 7SF       0.153000
     16 H3         -25.5360   -21.2780    -8.0170 ha         1 7SF       0.115000
     17 H4         -27.5290   -22.2680    -9.0550 ha         1 7SF       0.136000
     18 O1         -30.7310   -22.3980    -8.0530 o          1 7SF      -0.686533
@<TRIPOS>BOND
     1     1     2 1   
     2     1     4 ar  
     3     1    13 ar  
     4     2     3 1   
     5     2    14 1   
     6     2    18 1   
     7     4     5 ar  
     8     4    15 1   
     9     5     6 1   
    10     5    10 ar  
    11     6     7 1   
    12     6     8 1   
    13     6     9 1   
    14    10    11 1   
    15    10    12 ar  
    16    12    13 ar  
    17    12    16 1   
    18    13    17 1   
@<TRIPOS>SUBSTRUCTURE
     1 7SF         1 TEMP              0 ****  ****    0 ROOT
