@<TRIPOS>MOLECULE
7SF
   18    18     1     0     0
SMALL
No Charge or Current Charge


@<TRIPOS>ATOM
      1 C37        -28.3910   -22.9270    -7.2150 ca         1 7SF      -0.221500
      2 S34        -29.9210   -23.6250    -7.9830 s6         1 7SF       1.261100
      3 O36        -30.2290   -24.7500    -7.0870 o          1 7SF      -0.686533
      4 C43        -28.2160   -22.9800    -5.8170 ca         1 7SF       0.028000
      5 C42        -27.0550   -22.4430    -5.2070 ca         1 7SF      -0.231300
      6 C44        -26.8770   -22.5110    -3.6830 c3         1 7SF       0.361300
      7 F47        -25.7680   -23.2040    -3.3370 f          1 7SF      -0.119000
      8 F46        -27.9120   -23.1150    -3.0560 f          1 7SF      -0.119000
      9 F45        -26.7670   -21.2800    -3.1350 f          1 7SF      -0.119000
     10 C40        -26.0720   -21.8460    -6.0310 ca         1 7SF       0.172000
     11 Cl1        -24.5930   -21.1490    -5.3680 cl         1 7SF      -0.221000
     12 C39        -26.2530   -21.7870    -7.4210 ca         1 7SF      -0.150000
     13 C38        -27.4060   -22.3210    -8.0150 ca         1 7SF       0.012000
     14 O35        -29.4620   -23.9730    -9.3360 o          1 7SF      -0.686533
     15 H2         -28.9930   -23.4410    -5.2090 ha         1 7SF       0.153000
     16 H3         -25.4940   -21.3210    -8.0440 ha         1 7SF       0.115000
     17 H4         -27.5290   -22.2590    -9.0950 ha         1 7SF       0.136000
     18 O1         -30.8320   -22.4740    -7.8940 o          1 7SF      -0.686533
@<TRIPOS>BOND
     1     1     2 1   
     2     1     4 ar  
     3     1    13 ar  
     4     2     3 1   
     5     2    14 1   
     6     2    18 1   
     7     4     5 ar  
     8     4    15 1   
     9     5     6 1   
    10     5    10 ar  
    11     6     7 1   
    12     6     8 1   
    13     6     9 1   
    14    10    11 1   
    15    10    12 ar  
    16    12    13 ar  
    17    12    16 1   
    18    13    17 1   
@<TRIPOS>SUBSTRUCTURE
     1 7SF         1 TEMP              0 ****  ****    0 ROOT
