@<TRIPOS>MOLECULE
7SH
   58    62     1     0     0
SMALL
bcc


@<TRIPOS>ATOM
      1 C11         -2.6700    -6.4530    37.3450 c3         1 7SH      -0.039700
      2 C13         -4.0740    -4.4010    37.1550 cc         1 7SH      -0.139300
      3 C14         -4.3180    -3.2710    37.8890 cd         1 7SH      -0.021000
      4 C02         -1.3520    -6.2130    36.6160 c          1 7SH       0.660100
      5 C04          0.3170    -7.5120    35.3350 ca         1 7SH       0.123600
      6 C05          1.2990    -6.5300    35.1910 ca         1 7SH      -0.270300
      7 C06          2.4450    -6.8250    34.4750 ca         1 7SH       0.427200
      8 C08          1.7700    -8.9350    34.0320 ca         1 7SH       0.440200
      9 C09          0.5890    -8.7450    34.7260 ca         1 7SH      -0.163900
     10 C15         -5.2240    -2.1920    37.4870 ca         1 7SH      -0.053000
     11 C16         -5.2340    -1.7210    36.1680 ca         1 7SH      -0.060000
     12 C17         -6.1090    -0.7390    35.7490 ca         1 7SH      -0.180000
     13 C18         -7.0150    -0.1740    36.6430 ca         1 7SH       0.192100
     14 C20         -7.0140    -0.6360    37.9670 ca         1 7SH      -0.124000
     15 C21         -7.9370    -0.0970    38.9060 cg         1 7SH       0.233800
     16 C23         -6.1250    -1.6330    38.3770 ca         1 7SH      -0.012000
     17 C24         -2.8820    -4.6280    39.0040 cc         1 7SH       0.184100
     18 C25         -3.5480    -3.4130    39.0860 cd         1 7SH      -0.250600
     19 C26         -3.2940    -2.5740    40.2150 c          1 7SH       0.747100
     20 C29         -3.1830    -2.3350    43.2780 c1         1 7SH      -0.180100
     21 C30         -4.0690    -2.2480    44.0890 cg         1 7SH      -0.023000
     22 C31         -5.1150    -2.1270    45.0300 cc         1 7SH      -0.179300
     23 C32         -5.3440    -2.9040    46.1530 cd         1 7SH      -0.107300
     24 C36         -6.1620    -1.1800    45.0560 cc         1 7SH       0.344200
     25 C37         -1.8440    -4.3960    40.9410 cd         1 7SH       0.521800
     26 N03         -0.8650    -7.3460    36.0320 ns         1 7SH      -0.474100
     27 N07          2.6930    -7.9950    33.9020 nb         1 7SH      -0.671000
     28 N12         -3.2190    -5.2270    37.8390 na         1 7SH      -0.029100
     29 N22         -8.6950     0.3460    39.6540 n1         1 7SH      -0.370800
     30 N27         -2.4090    -3.1750    41.1300 n          1 7SH      -0.404300
     31 N33         -6.4370    -2.4120    46.7460 na         1 7SH       0.113400
     32 N35         -6.9470    -1.3670    46.0950 nd         1 7SH      -0.523800
     33 N38         -2.0320    -5.1490    39.9120 nc         1 7SH      -0.635100
     34 O01         -0.8200    -5.1290    36.5890 o          1 7SH      -0.533100
     35 O19         -7.8330     0.7760    36.1830 oh         1 7SH      -0.488100
     36 CL10        -0.5380   -10.0530    34.8220 cl         1 7SH      -0.103400
     37 H1          -3.3920    -6.9280    36.6780 h1         1 7SH       0.089200
     38 H2          -2.5000    -7.1430    38.1740 h1         1 7SH       0.089200
     39 H3          -4.4790    -4.7000    36.2000 h4         1 7SH       0.171000
     40 H4           1.1830    -5.5520    35.6250 ha         1 7SH       0.178000
     41 H5           3.2060    -6.0610    34.3660 h4         1 7SH       0.027100
     42 H6           1.9650    -9.8960    33.5680 h4         1 7SH       0.034100
     43 H7          -4.5300    -2.1300    35.4540 ha         1 7SH       0.137000
     44 H8          -6.0900    -0.3920    34.7240 ha         1 7SH       0.151000
     45 H9          -6.1670    -1.9740    39.4020 ha         1 7SH       0.156000
     46 H10         -1.2220    -2.8970    42.8100 h1         1 7SH       0.073200
     47 H11         -1.7530    -1.4150    42.0460 h1         1 7SH       0.073200
     48 H12         -4.8060    -3.7500    46.5490 h4         1 7SH       0.175000
     49 H13         -8.0920    -3.1880    47.7520 h1         1 7SH       0.058033
     50 H14         -6.5120    -3.7410    48.3280 h1         1 7SH       0.058033
     51 H15         -7.0670    -2.1040    48.7110 h1         1 7SH       0.058033
     52 H16         -6.3520    -0.3850    44.3510 h4         1 7SH       0.052100
     53 H17         -1.1820    -4.7320    41.7300 h5         1 7SH       0.050800
     54 H18         -1.4470    -8.1690    36.1090 hn         1 7SH       0.331500
     55 H19         -8.4240     1.1260    36.8610 ho         1 7SH       0.443000
     56 O39         -3.7340    -1.4590    40.4370 o          1 7SH      -0.597500
     57 C28         -2.0780    -2.4160    42.3350 c3         1 7SH       0.196100
     58 C34         -7.0670    -2.8860    47.9560 c3         1 7SH       0.043600
@<TRIPOS>BOND
     1     1     4 1   
     2     1    28 1   
     3     1    37 1   
     4     1    38 1   
     5     2     3 2   
     6     2    28 1   
     7     2    39 1   
     8     3    10 1   
     9     3    18 1   
    10     4    26 1   
    11     4    34 2   
    12     5     6 ar  
    13     5     9 ar  
    14     5    26 1   
    15     6     7 ar  
    16     6    40 1   
    17     7    27 ar  
    18     7    41 1   
    19     8     9 ar  
    20     8    27 ar  
    21     8    42 1   
    22     9    36 1   
    23    10    11 ar  
    24    10    16 ar  
    25    11    12 ar  
    26    11    43 1   
    27    12    13 ar  
    28    12    44 1   
    29    13    14 ar  
    30    13    35 1   
    31    14    15 1   
    32    14    16 ar  
    33    15    29 3   
    34    16    45 1   
    35    17    18 2   
    36    17    28 1   
    37    17    33 1   
    38    18    19 1   
    39    19    30 1   
    40    19    56 2   
    41    20    21 3   
    42    20    57 1   
    43    21    22 1   
    44    22    23 2   
    45    22    24 1   
    46    23    31 1   
    47    23    48 1   
    48    24    32 2   
    49    24    52 1   
    50    25    30 1   
    51    25    33 2   
    52    25    53 1   
    53    26    54 1   
    54    30    57 1   
    55    31    32 1   
    56    31    58 1   
    57    35    55 1   
    58    46    57 1   
    59    47    57 1   
    60    49    58 1   
    61    50    58 1   
    62    51    58 1   
@<TRIPOS>SUBSTRUCTURE
     1 7SH         1 TEMP              0 ****  ****    0 ROOT
