@<TRIPOS>MOLECULE
7SH
   58    62     1     0     0
SMALL
No Charge or Current Charge


@<TRIPOS>ATOM
      1 C11         -3.7680    -6.5650    36.5360 c3         1 7SH      -0.010400
      2 C13         -4.6520    -4.1800    36.5400 cc         1 7SH      -0.172000
      3 C14         -4.6520    -3.1390    37.4420 cd         1 7SH      -0.021000
      4 C02         -2.4430    -6.6490    35.7810 c          1 7SH       0.593100
      5 C04          0.0700    -6.7900    36.2990 ca         1 7SH       0.031000
      6 C05          0.6010    -6.6700    34.9960 ca         1 7SH      -0.187000
      7 C06          1.9890    -6.7420    34.7990 ca         1 7SH       0.361900
      8 C08          2.3670    -7.0350    37.0620 ca         1 7SH       0.374900
      9 C09          0.9890    -6.9750    37.3530 ca         1 7SH      -0.007000
     10 C15         -5.2620    -1.8240    37.1490 ca         1 7SH      -0.053000
     11 C16         -5.3800    -1.3850    35.8130 ca         1 7SH      -0.042000
     12 C17         -5.9730    -0.1460    35.5170 ca         1 7SH      -0.162000
     13 C18         -6.4770     0.6660    36.5410 ca         1 7SH       0.192100
     14 C20         -6.4020     0.2260    37.8790 ca         1 7SH      -0.124000
     15 C21         -6.9360     1.0080    38.9590 cg         1 7SH       0.323000
     16 C23         -5.8040    -1.0170    38.1710 ca         1 7SH       0.006000
     17 C24         -3.4820    -4.8320    38.3680 cc         1 7SH       0.133400
     18 C25         -3.8410    -3.5350    38.5540 cd         1 7SH      -0.250600
     19 C26         -3.3300    -2.7940    39.7260 c          1 7SH       0.604600
     20 C29         -2.9800    -3.0720    42.9590 c1         1 7SH      -0.180100
     21 C30         -3.7940    -3.1520    43.8570 cg         1 7SH      -0.023000
     22 C31         -4.7730    -3.2470    44.8800 cc         1 7SH      -0.114000
     23 C32         -4.6830    -3.8830    46.0800 cd         1 7SH      -0.140000
     24 C36         -6.0540    -2.6760    44.8240 cc         1 7SH       0.278900
     25 C37         -2.3210    -4.9170    40.3340 cd         1 7SH       0.521800
     26 N03         -1.3200    -6.7240    36.5940 ns         1 7SH      -0.148000
     27 N07          2.8690    -6.9220    35.8090 nb         1 7SH      -0.671000
     28 N12         -3.9770    -5.2410    37.1380 na         1 7SH       0.043000
     29 N22         -7.3750     1.6550    39.8240 n1         1 7SH      -0.460000
     30 N27         -2.5740    -3.5820    40.6010 n          1 7SH      -0.337300
     31 N33         -5.9250    -3.6600    46.6880 na         1 7SH       0.134800
     32 N35         -6.7840    -2.9030    45.9000 nd         1 7SH      -0.523800
     33 N38         -2.7210    -5.5660    39.2390 nc         1 7SH      -0.635100
     34 O01         -2.4050    -6.6490    34.5560 o          1 7SH      -0.533100
     35 O19         -7.0460     1.8640    36.2020 oh         1 7SH      -0.527100
     36 Cl10         0.4400    -7.1360    39.0250 cl         1 7SH      -0.195000
     37 H1          -4.5830    -6.7810    35.8360 h1         1 7SH       0.089200
     38 H2          -3.7720    -7.3270    37.3240 h1         1 7SH       0.089200
     39 H3          -5.1050    -4.2650    35.5610 h4         1 7SH       0.153000
     40 H4          -0.0280    -6.5150    34.1270 ha         1 7SH       0.160000
     41 H5           2.4120    -6.6500    33.7990 h4         1 7SH       0.027100
     42 H6           3.0930    -7.1790    37.8610 h4         1 7SH       0.034100
     43 H7          -4.9890    -1.9890    34.9990 ha         1 7SH       0.119000
     44 H8          -6.0400     0.1860    34.4840 ha         1 7SH       0.133000
     45 H9          -5.8080    -1.3770    39.1960 ha         1 7SH       0.138000
     46 H10         -1.1070    -3.4920    42.1180 h1         1 7SH       0.073200
     47 H11         -1.7810    -1.9270    41.6670 h1         1 7SH       0.073200
     48 H12         -3.8810    -4.4510    46.5370 h4         1 7SH       0.157000
     49 H13         -7.2320    -4.7790    47.9030 h1         1 7SH       0.058033
     50 H14         -5.5360    -4.7210    48.4690 h1         1 7SH       0.058033
     51 H15         -6.5870    -3.2860    48.6520 h1         1 7SH       0.058033
     52 H16         -6.4770    -2.0930    44.0170 h4         1 7SH       0.052100
     53 H17         -1.7330    -5.4520    41.0700 h5         1 7SH       0.050800
     54 H18         -1.5260    -6.7090    37.5870 hn         1 7SH       0.165000
     55 H19         -7.3510     2.3150    37.0180 ho         1 7SH       0.482000
     56 O39         -3.5130    -1.6010    39.9200 o          1 7SH      -0.522000
     57 C28         -2.0370    -2.9810    41.8380 c3         1 7SH       0.196100
     58 C34         -6.3460    -4.1420    48.0100 c3         1 7SH       0.072900
@<TRIPOS>BOND
     1     1     4 1   
     2     1    28 1   
     3     1    37 1   
     4     1    38 1   
     5     2     3 2   
     6     2    28 1   
     7     2    39 1   
     8     3    10 1   
     9     3    18 1   
    10     4    26 1   
    11     4    34 2   
    12     5     6 ar  
    13     5     9 ar  
    14     5    26 1   
    15     6     7 ar  
    16     6    40 1   
    17     7    27 ar  
    18     7    41 1   
    19     8     9 ar  
    20     8    27 ar  
    21     8    42 1   
    22     9    36 1   
    23    10    11 ar  
    24    10    16 ar  
    25    11    12 ar  
    26    11    43 1   
    27    12    13 ar  
    28    12    44 1   
    29    13    14 ar  
    30    13    35 1   
    31    14    15 1   
    32    14    16 ar  
    33    15    29 3   
    34    16    45 1   
    35    17    18 2   
    36    17    28 1   
    37    17    33 1   
    38    18    19 1   
    39    19    30 1   
    40    19    56 2   
    41    20    21 3   
    42    20    57 1   
    43    21    22 1   
    44    22    23 2   
    45    22    24 1   
    46    23    31 1   
    47    23    48 1   
    48    24    32 2   
    49    24    52 1   
    50    25    30 1   
    51    25    33 2   
    52    25    53 1   
    53    26    54 1   
    54    30    57 1   
    55    31    32 1   
    56    31    58 1   
    57    35    55 1   
    58    46    57 1   
    59    47    57 1   
    60    49    58 1   
    61    50    58 1   
    62    51    58 1   
@<TRIPOS>SUBSTRUCTURE
     1 7SH         1 TEMP              0 ****  ****    0 ROOT
