@<TRIPOS>MOLECULE
7SI
   25    27     1     0     0
SMALL
No Charge or Current Charge


@<TRIPOS>ATOM
      1 C            2.1690     0.8270     0.9960 c5         1 7SI      -0.079400
      2 O           -1.0930    -2.7650    -0.1570 oh         1 7SI      -0.532100
      3 C1           2.1740    -0.7570     1.0020 c5         1 7SI      -0.079400
      4 O1          -1.1130     2.8020    -0.1790 oh         1 7SI      -0.532100
      5 C2           1.5200    -1.1350    -0.3720 c5         1 7SI      -0.016400
      6 C3           2.0920     0.0260    -1.2480 c5         1 7SI      -0.082400
      7 C4           1.5110     1.1900    -0.3810 c5         1 7SI      -0.016400
      8 C5           0.0780     0.7110    -0.2710 ca         1 7SI      -0.086300
      9 C6          -1.1190     1.4380    -0.1760 ca         1 7SI       0.119100
     10 C7          -2.3300     0.7230    -0.0750 ca         1 7SI      -0.164000
     11 C8          -2.3250    -0.6930    -0.0700 ca         1 7SI      -0.164000
     12 C9          -1.1090    -1.4000    -0.1650 ca         1 7SI       0.119100
     13 C10          0.0830    -0.6660    -0.2660 ca         1 7SI      -0.086300
     14 H            1.6070     1.2430     1.8410 hc         1 7SI       0.046700
     15 HA           3.1880     1.2230     1.0650 hc         1 7SI       0.046700
     16 HO          -2.0170    -3.0850    -0.0790 ho         1 7SI       0.459000
     17 H1           3.1970    -1.1460     1.0740 hc         1 7SI       0.046700
     18 H1A          1.6160    -1.1700     1.8500 hc         1 7SI       0.046700
     19 HO1         -2.0390     3.1160    -0.1030 ho         1 7SI       0.459000
     20 H2           1.6860    -2.1570    -0.7350 hc         1 7SI       0.082700
     21 H3           3.1870     0.0300    -1.3150 hc         1 7SI       0.053200
     22 H3A          1.6920     0.0200    -2.2690 hc         1 7SI       0.053200
     23 H4           1.6700     2.2090    -0.7520 hc         1 7SI       0.082700
     24 H7          -3.2760     1.2550    -0.0000 ha         1 7SI       0.111500
     25 H8          -3.2670    -1.2310     0.0100 ha         1 7SI       0.111500
@<TRIPOS>BOND
     1     1     3 1   
     2     1     7 1   
     3     1    14 1   
     4     1    15 1   
     5     2    12 1   
     6     2    16 1   
     7     3     5 1   
     8     3    17 1   
     9     3    18 1   
    10     4     9 1   
    11     4    19 1   
    12     5     6 1   
    13     5    13 1   
    14     5    20 1   
    15     6     7 1   
    16     6    21 1   
    17     6    22 1   
    18     7     8 1   
    19     7    23 1   
    20     8     9 ar  
    21     8    13 ar  
    22     9    10 ar  
    23    10    11 ar  
    24    10    24 1   
    25    11    12 ar  
    26    11    25 1   
    27    12    13 ar  
@<TRIPOS>SUBSTRUCTURE
     1 7SI         1 TEMP              0 ****  ****    0 ROOT
