@<TRIPOS>MOLECULE
7SI
   25    27     1     0     0
SMALL
bcc


@<TRIPOS>ATOM
      1 C            2.1260     0.8110     0.9860 c5         1 7SI      -0.079400
      2 O           -1.0480    -2.7500    -0.1440 oh         1 7SI      -0.493100
      3 C1           2.1310    -0.7410     0.9920 c5         1 7SI      -0.079400
      4 O1          -1.0670     2.7880    -0.1660 oh         1 7SI      -0.493100
      5 C2           1.5070    -1.1020    -0.3800 c5         1 7SI      -0.016400
      6 C3           2.0820     0.0260    -1.2550 c5         1 7SI      -0.082400
      7 C4           1.4990     1.1560    -0.3890 c5         1 7SI      -0.016400
      8 C5           0.0590     0.7190    -0.3150 ca         1 7SI      -0.086300
      9 C6          -1.1190     1.4330    -0.1800 ca         1 7SI       0.119100
     10 C7          -2.3070     0.7100    -0.0710 ca         1 7SI      -0.182000
     11 C8          -2.3010    -0.6810    -0.0660 ca         1 7SI      -0.182000
     12 C9          -1.1090    -1.3960    -0.1690 ca         1 7SI       0.119100
     13 C10          0.0640    -0.6740    -0.3100 ca         1 7SI      -0.086300
     14 H            1.5570     1.2370     1.8130 hc         1 7SI       0.046700
     15 HA           3.1400     1.2080     1.0500 hc         1 7SI       0.046700
     16 HO          -1.9330    -3.1160    -0.0410 ho         1 7SI       0.420000
     17 H1           3.1490    -1.1300     1.0580 hc         1 7SI       0.046700
     18 H1A          1.5660    -1.1650     1.8230 hc         1 7SI       0.046700
     19 HO1         -1.9540     3.1490    -0.0630 ho         1 7SI       0.420000
     20 H2           1.6920    -2.1250    -0.7030 hc         1 7SI       0.082700
     21 H3           3.1740     0.0290    -1.2860 hc         1 7SI       0.053200
     22 H3A          1.6950     0.0200    -2.2750 hc         1 7SI       0.053200
     23 H4           1.6760     2.1780    -0.7210 hc         1 7SI       0.082700
     24 H7          -3.2540     1.2320     0.0130 ha         1 7SI       0.129500
     25 H8          -3.2450    -1.2080     0.0240 ha         1 7SI       0.129500
@<TRIPOS>BOND
     1     1     3 1   
     2     1     7 1   
     3     1    14 1   
     4     1    15 1   
     5     2    12 1   
     6     2    16 1   
     7     3     5 1   
     8     3    17 1   
     9     3    18 1   
    10     4     9 1   
    11     4    19 1   
    12     5     6 1   
    13     5    13 1   
    14     5    20 1   
    15     6     7 1   
    16     6    21 1   
    17     6    22 1   
    18     7     8 1   
    19     7    23 1   
    20     8     9 ar  
    21     8    13 ar  
    22     9    10 ar  
    23    10    11 ar  
    24    10    24 1   
    25    11    12 ar  
    26    11    25 1   
    27    12    13 ar  
@<TRIPOS>SUBSTRUCTURE
     1 7SI         1 TEMP              0 ****  ****    0 ROOT
