@<TRIPOS>MOLECULE
7SJ
   46    48     1     0     0
SMALL
bcc


@<TRIPOS>ATOM
      1 C01         -6.1900     2.7610     0.4080 c3         1 7SJ       0.136700
      2 C04         -4.7610    -0.4710    -0.4430 ca         1 7SJ      -0.200300
      3 C06         -3.4880    -2.4930    -0.8850 c          1 7SJ       0.591500
      4 C10         -0.0810    -0.2300     0.4250 c3         1 7SJ       0.188700
      5 C11          1.0990    -1.1610     0.4150 ca         1 7SJ      -0.184600
      6 C12          0.9360    -2.5400     0.3340 ca         1 7SJ      -0.064000
      7 C13          2.0520    -3.3590     0.3220 ca         1 7SJ      -0.243300
      8 C14          3.3040    -2.7700     0.3850 ca         1 7SJ       0.407200
      9 C17          2.6740     0.7710     0.6250 cc         1 7SJ      -0.162800
     10 C18          2.1960     1.6720     1.5560 cd         1 7SJ      -0.307300
     11 C19          2.8470     2.8720     1.2480 cd         1 7SJ       0.297200
     12 N21          3.5380     1.4560    -0.1600 na         1 7SJ       0.137400
     13 C22          4.3000     0.9810    -1.3140 c3         1 7SJ       0.078000
     14 C23          4.0730     1.8890    -2.5130 c3         1 7SJ      -0.102600
     15 C24          5.7710     0.8440    -0.9550 c3         1 7SJ      -0.102600
     16 O02         -6.0770     1.4130    -0.0230 os         1 7SJ      -0.437100
     17 C03         -4.8600     0.8620    -0.0330 ca         1 7SJ       0.610600
     18 C05         -3.5200    -1.0750    -0.4640 ca         1 7SJ      -0.166600
     19 C08         -2.3910    -0.3230    -0.0790 ca         1 7SJ       0.042800
     20 O09         -1.1900    -0.9150    -0.1170 os         1 7SJ      -0.295900
     21 N15          3.4770    -1.4610     0.4730 nb         1 7SJ      -0.670000
     22 C16          2.4060    -0.6700     0.4930 ca         1 7SJ       0.485800
     23 N20          3.6490     2.7240     0.2100 nc         1 7SJ      -0.518800
     24 C25         -2.6060     0.9910     0.3100 ca         1 7SJ       0.350200
     25 N26         -3.8120     1.5580     0.3310 nb         1 7SJ      -0.708000
     26 H012        -7.2470     3.0050     0.3480 h1         1 7SJ       0.047033
     27 H013        -5.8490     2.8880     1.4370 h1         1 7SJ       0.047033
     28 H011        -5.6260     3.4400    -0.2330 h1         1 7SJ       0.047033
     29 H041        -5.6460    -1.0240    -0.7320 ha         1 7SJ       0.158000
     30 H1          -4.4860    -2.8820    -1.1520 h4         1 7SJ      -0.009800
     31 H101        -0.3020     0.0890     1.4510 h1         1 7SJ       0.054700
     32 H102         0.1450     0.6720    -0.1550 h1         1 7SJ       0.054700
     33 H121        -0.0520    -2.9730     0.2610 ha         1 7SJ       0.170000
     34 H131         1.9540    -4.4340     0.2590 ha         1 7SJ       0.148000
     35 H141         4.2020    -3.3780     0.3680 h4         1 7SJ       0.023100
     36 H181         1.5060     1.4800     2.3620 ha         1 7SJ       0.159000
     37 H191         2.7610     3.8280     1.7430 h4         1 7SJ       0.037100
     38 H221         3.9050    -0.0060    -1.5480 h1         1 7SJ       0.066700
     39 H231         4.4720     2.8880    -2.3410 hc         1 7SJ       0.049867
     40 H232         4.5760     1.4690    -3.3830 hc         1 7SJ       0.049867
     41 H233         3.0120     1.9760    -2.7490 hc         1 7SJ       0.049867
     42 H241         5.9010     0.1600    -0.1170 hc         1 7SJ       0.049867
     43 H242         6.3260     0.4470    -1.8050 hc         1 7SJ       0.049867
     44 H243         6.2040     1.8100    -0.6910 hc         1 7SJ       0.049867
     45 H251        -1.7860     1.6300     0.6170 h4         1 7SJ       0.030100
     46 O1          -2.5140    -3.2000    -0.9450 o          1 7SJ      -0.496100
@<TRIPOS>BOND
     1     1    16 1   
     2     1    26 1   
     3     1    27 1   
     4     1    28 1   
     5     2    17 ar  
     6     2    18 ar  
     7     2    29 1   
     8     3    18 1   
     9     3    30 1   
    10     3    46 2   
    11     4     5 1   
    12     4    20 1   
    13     4    31 1   
    14     4    32 1   
    15     5     6 ar  
    16     5    22 ar  
    17     6     7 ar  
    18     6    33 1   
    19     7     8 ar  
    20     7    34 1   
    21     8    21 ar  
    22     8    35 1   
    23     9    10 2   
    24     9    12 1   
    25     9    22 1   
    26    10    11 1   
    27    10    36 1   
    28    11    23 2   
    29    11    37 1   
    30    12    13 1   
    31    12    23 1   
    32    13    14 1   
    33    13    15 1   
    34    13    38 1   
    35    14    39 1   
    36    14    40 1   
    37    14    41 1   
    38    15    42 1   
    39    15    43 1   
    40    15    44 1   
    41    16    17 1   
    42    17    25 ar  
    43    18    19 ar  
    44    19    20 1   
    45    19    24 ar  
    46    21    22 ar  
    47    24    25 ar  
    48    24    45 1   
@<TRIPOS>SUBSTRUCTURE
     1 7SJ         1 TEMP              0 ****  ****    0 ROOT
