@<TRIPOS>MOLECULE
7SJ
   46    48     1     0     0
SMALL
No Charge or Current Charge


@<TRIPOS>ATOM
      1 C01         -6.4480     2.8120     0.3870 c3         1 7SJ       0.159900
      2 C04         -4.8370    -0.4040    -0.5740 ca         1 7SJ      -0.117000
      3 C06         -3.4780    -2.4590    -1.0990 c          1 7SJ       0.591500
      4 C10         -0.1180    -0.3010     0.7020 c3         1 7SJ       0.211900
      5 C11          1.1060    -1.2140     0.6070 ca         1 7SJ      -0.119300
      6 C12          0.9460    -2.6160     0.6380 ca         1 7SJ      -0.046000
      7 C13          2.0800    -3.4280     0.4990 ca         1 7SJ      -0.160000
      8 C14          3.3330    -2.8240     0.3310 ca         1 7SJ       0.341900
      9 C17          2.6800     0.7590     0.4580 cc         1 7SJ      -0.213500
     10 C18          2.2470     1.6100     1.4380 cd         1 7SJ      -0.224000
     11 C19          2.8860     2.8450     1.2160 cd         1 7SJ       0.231900
     12 N21          3.6230     1.4990    -0.2560 na         1 7SJ       0.158800
     13 C22          4.4300     1.0460    -1.4180 c3         1 7SJ       0.107300
     14 C23          4.2470     1.9510    -2.6590 c3         1 7SJ      -0.102600
     15 C24          5.9210     0.8710    -1.0510 c3         1 7SJ      -0.102600
     16 O02         -6.2200     1.4830    -0.1220 os         1 7SJ      -0.460300
     17 C03         -4.9770     0.8960    -0.0560 ca         1 7SJ       0.545300
     18 C05         -3.5870    -1.0630    -0.5350 ca         1 7SJ      -0.166600
     19 C08         -2.5020    -0.3590     0.0410 ca         1 7SJ       0.108100
     20 O09         -1.2530    -0.9510     0.1000 os         1 7SJ      -0.319100
     21 N15          3.5020    -1.4850     0.3130 nb         1 7SJ      -0.670000
     22 C16          2.4170    -0.6870     0.4640 ca         1 7SJ       0.420500
     23 N20          3.7220     2.8090     0.1950 nc         1 7SJ      -0.518800
     24 C25         -2.7400     0.9510     0.5400 ca         1 7SJ       0.284900
     25 N26         -3.9450     1.5690     0.4960 nb         1 7SJ      -0.708000
     26 H012        -7.4970     3.1010     0.2420 h1         1 7SJ       0.047033
     27 H013        -6.2270     2.8640     1.4610 h1         1 7SJ       0.047033
     28 H011        -5.8190     3.5450    -0.1350 h1         1 7SJ       0.047033
     29 H041        -5.7090    -0.8900    -1.0040 ha         1 7SJ       0.140000
     30 H1          -4.4150    -2.8580    -1.5460 h4         1 7SJ      -0.009800
     31 H101        -0.3180    -0.0800     1.7580 h1         1 7SJ       0.054700
     32 H102         0.0820     0.6430     0.1810 h1         1 7SJ       0.054700
     33 H121        -0.0360    -3.0710     0.7560 ha         1 7SJ       0.152000
     34 H131         1.9960    -4.5110     0.5120 ha         1 7SJ       0.130000
     35 H141         4.2300    -3.4290     0.2120 h4         1 7SJ       0.023100
     36 H181         1.5730     1.3850     2.2570 ha         1 7SJ       0.141000
     37 H191         2.7850     3.7590     1.7880 h4         1 7SJ       0.037100
     38 H221         4.0510     0.0580    -1.7070 h1         1 7SJ       0.066700
     39 H231         4.6410     2.9580    -2.4760 hc         1 7SJ       0.049867
     40 H232         4.7740     1.5290    -3.5240 hc         1 7SJ       0.049867
     41 H233         3.1850     2.0370    -2.9180 hc         1 7SJ       0.049867
     42 H241         6.0290     0.1830    -0.2040 hc         1 7SJ       0.049867
     43 H242         6.4820     0.4590    -1.8980 hc         1 7SJ       0.049867
     44 H243         6.3700     1.8320    -0.7730 hc         1 7SJ       0.049867
     45 H251        -1.9410     1.5370     0.9920 h4         1 7SJ       0.030100
     46 O1          -2.4650    -3.1500    -1.0860 o          1 7SJ      -0.496100
@<TRIPOS>BOND
     1     1    16 1   
     2     1    26 1   
     3     1    27 1   
     4     1    28 1   
     5     2    17 ar  
     6     2    18 ar  
     7     2    29 1   
     8     3    18 1   
     9     3    30 1   
    10     3    46 2   
    11     4     5 1   
    12     4    20 1   
    13     4    31 1   
    14     4    32 1   
    15     5     6 ar  
    16     5    22 ar  
    17     6     7 ar  
    18     6    33 1   
    19     7     8 ar  
    20     7    34 1   
    21     8    21 ar  
    22     8    35 1   
    23     9    10 2   
    24     9    12 1   
    25     9    22 1   
    26    10    11 1   
    27    10    36 1   
    28    11    23 2   
    29    11    37 1   
    30    12    13 1   
    31    12    23 1   
    32    13    14 1   
    33    13    15 1   
    34    13    38 1   
    35    14    39 1   
    36    14    40 1   
    37    14    41 1   
    38    15    42 1   
    39    15    43 1   
    40    15    44 1   
    41    16    17 1   
    42    17    25 ar  
    43    18    19 ar  
    44    19    20 1   
    45    19    24 ar  
    46    21    22 ar  
    47    24    25 ar  
    48    24    45 1   
@<TRIPOS>SUBSTRUCTURE
     1 7SJ         1 TEMP              0 ****  ****    0 ROOT
