@<TRIPOS>MOLECULE
7SK
   55    58     1     0     0
SMALL
abcg2


@<TRIPOS>ATOM
      1 C10         -1.4680    -0.7470     2.5230 c          1 7SK       0.722000
      2 C13         -0.2510     1.1820    -0.2600 cc         1 7SK      -0.140400
      3 C15          1.7240     0.6930    -1.6960 ca         1 7SK      -0.091000
      4 C17          3.6830    -0.3930    -0.8110 ca         1 7SK       0.111100
      5 C20          4.9380    -1.9840     1.0980 c6         1 7SK      -0.112400
      6 C21          3.8180    -1.0880     1.6050 c6         1 7SK      -0.022100
      7 C22          3.0910    -0.4510     0.4510 ca         1 7SK      -0.158300
      8 C24         -0.7420     2.4420    -0.7310 ca         1 7SK      -0.067800
      9 C26         -0.9500     4.6190    -1.7150 ca         1 7SK      -0.156000
     10 C28         -2.8950     3.6170    -0.6650 ca         1 7SK      -0.122000
     11 N02         -2.4130     1.3670     0.3210 na         1 7SK      -0.057700
     12 C03         -1.3040     0.5580     0.3660 cd         1 7SK       0.043700
     13 C04         -1.3550    -0.8100     0.9720 c3         1 7SK       0.049500
     14 O05         -2.3970    -1.5620     0.4090 os         1 7SK      -0.437000
     15 C06         -2.0750    -2.5300    -0.5850 c3         1 7SK       0.188000
     16 C07         -1.2770    -3.6820     0.0270 c3         1 7SK      -0.101433
     17 C08         -3.4280    -3.0420    -1.0660 c3         1 7SK      -0.101433
     18 C09         -1.3150    -1.9180    -1.7620 c3         1 7SK      -0.101433
     19 O11         -2.3180    -1.4600     3.0720 o          1 7SK      -0.703500
     20 O12         -0.6510     0.0210     3.0680 o          1 7SK      -0.703500
     21 C14          1.1040     0.6550    -0.4420 ca         1 7SK      -0.008800
     22 C16          2.9950     0.1820    -1.8790 ca         1 7SK      -0.157000
     23 O18          4.9140    -0.8900    -1.0750 os         1 7SK      -0.358100
     24 C19          5.7250    -1.2410     0.0400 c6         1 7SK       0.164600
     25 C23          1.8160     0.0850     0.6110 ca         1 7SK      -0.067000
     26 C25         -0.1670     3.5210    -1.4100 ca         1 7SK      -0.074000
     27 C27         -2.3040     4.6630    -1.3500 ca         1 7SK      -0.125000
     28 C29         -2.1000     2.5150    -0.3550 ca         1 7SK      -0.060200
     29 H202         4.5350    -2.9090     0.6770 hc         1 7SK       0.047200
     30 H212         3.1150    -1.6520     2.2210 hc         1 7SK       0.057200
     31 H211         4.2400    -0.3110     2.2500 hc         1 7SK       0.057200
     32 H261        -0.5150     5.4580    -2.2430 ha         1 7SK       0.091000
     33 H281        -3.9400     3.6630    -0.3860 ha         1 7SK       0.103000
     34 H012        -4.2180     1.9640     1.1560 h1         1 7SK       0.053367
     35 H013        -4.3600     0.6310    -0.0000 h1         1 7SK       0.053367
     36 H011        -3.7070     0.3500     1.6150 h1         1 7SK       0.053367
     37 H041        -0.3750    -1.2620     0.7700 h1         1 7SK       0.050700
     38 H071        -1.7960    -4.0870     0.8970 hc         1 7SK       0.034589
     39 H073        -1.1530    -4.4880    -0.6980 hc         1 7SK       0.034589
     40 H072        -0.2770    -3.3770     0.3420 hc         1 7SK       0.034589
     41 H083        -4.0200    -2.2320    -1.4980 hc         1 7SK       0.034589
     42 H082        -3.2950    -3.8070    -1.8300 hc         1 7SK       0.034589
     43 H081        -3.9980    -3.4810    -0.2450 hc         1 7SK       0.034589
     44 H093        -0.3160    -1.5770    -1.4840 hc         1 7SK       0.034589
     45 H092        -1.1970    -2.6590    -2.5550 hc         1 7SK       0.034589
     46 H091        -1.8560    -1.0650    -2.1760 hc         1 7SK       0.034589
     47 H161         3.4600     0.2120    -2.8570 ha         1 7SK       0.109000
     48 H192         6.1680    -0.3340     0.4690 h1         1 7SK       0.039700
     49 H191         6.5360    -1.8490    -0.3620 h1         1 7SK       0.039700
     50 H231         1.3570     0.0550     1.5940 ha         1 7SK       0.165000
     51 H251         0.8780     3.4990    -1.6940 ha         1 7SK       0.106000
     52 H271        -2.8970     5.5310    -1.6070 ha         1 7SK       0.090000
     53 C01         -3.7420     1.0560     0.7920 c3         1 7SK       0.063900
     54 H151         1.1980     1.1110    -2.5450 ha         1 7SK       0.110000
     55 H201         5.6090    -2.2660     1.9110 hc         1 7SK       0.047200
@<TRIPOS>BOND
     1     1    13 1   
     2     1    19 1   
     3     1    20 1   
     4     2     8 1   
     5     2    12 2   
     6     2    21 1   
     7     3    21 ar  
     8     3    22 ar  
     9     3    54 1   
    10     4     7 ar  
    11     4    22 ar  
    12     4    23 1   
    13     5     6 1   
    14     5    24 1   
    15     5    29 1   
    16     5    55 1   
    17     6     7 1   
    18     6    30 1   
    19     6    31 1   
    20     7    25 ar  
    21     8    26 ar  
    22     8    28 ar  
    23     9    26 ar  
    24     9    27 ar  
    25     9    32 1   
    26    10    27 ar  
    27    10    28 ar  
    28    10    33 1   
    29    11    12 1   
    30    11    28 1   
    31    11    53 1   
    32    12    13 1   
    33    13    14 1   
    34    13    37 1   
    35    14    15 1   
    36    15    16 1   
    37    15    17 1   
    38    15    18 1   
    39    16    38 1   
    40    16    39 1   
    41    16    40 1   
    42    17    41 1   
    43    17    42 1   
    44    17    43 1   
    45    18    44 1   
    46    18    45 1   
    47    18    46 1   
    48    21    25 ar  
    49    22    47 1   
    50    23    24 1   
    51    24    48 1   
    52    24    49 1   
    53    25    50 1   
    54    26    51 1   
    55    27    52 1   
    56    34    53 1   
    57    35    53 1   
    58    36    53 1   
@<TRIPOS>SUBSTRUCTURE
     1 7SK         1 TEMP              0 ****  ****    0 ROOT
