@<TRIPOS>MOLECULE
7SK
   55    58     1     0     0
SMALL
No Charge or Current Charge


@<TRIPOS>ATOM
      1 C10         -1.4360    -0.8000     2.6610 c          1 7SK       0.722000
      2 C13         -0.2350     1.1620    -0.1680 cc         1 7SK      -0.140400
      3 C15          1.6150     0.4540    -1.6640 ca         1 7SK      -0.091000
      4 C17          3.6440    -0.5560    -0.7740 ca         1 7SK       0.111100
      5 C20          5.0660    -1.8890     1.3110 c6         1 7SK      -0.112400
      6 C21          3.9310    -0.9370     1.7400 c6         1 7SK      -0.022100
      7 C22          3.1270    -0.4420     0.5370 ca         1 7SK      -0.158300
      8 C24         -0.7400     2.3930    -0.6980 ca         1 7SK      -0.067800
      9 C26         -0.8710     4.5170    -1.8240 ca         1 7SK      -0.156000
     10 C28         -2.8510     3.5600    -0.7380 ca         1 7SK      -0.122000
     11 N02         -2.4350     1.3330     0.3690 na         1 7SK      -0.057700
     12 C03         -1.2880     0.4980     0.4640 cd         1 7SK       0.043700
     13 C04         -1.3080    -0.8840     1.0990 c3         1 7SK       0.049500
     14 O05         -2.3770    -1.6920     0.4960 os         1 7SK      -0.437000
     15 C06         -2.1270    -2.4610    -0.7100 c3         1 7SK       0.188000
     16 C07         -1.0310    -3.5220    -0.4270 c3         1 7SK      -0.101433
     17 C08         -3.4750    -3.1530    -1.0140 c3         1 7SK      -0.101433
     18 C09         -1.7390    -1.5200    -1.8780 c3         1 7SK      -0.101433
     19 O11         -2.3670    -1.3640     3.2260 o          1 7SK      -0.703500
     20 O12         -0.5890    -0.1630     3.2740 o          1 7SK      -0.703500
     21 C14          1.0890     0.5740    -0.3630 ca         1 7SK      -0.008800
     22 C16          2.8840    -0.1140    -1.8680 ca         1 7SK      -0.157000
     23 O18          4.8820    -1.1170    -1.0130 os         1 7SK      -0.358100
     24 C19          5.7970    -1.3030     0.0880 c6         1 7SK       0.164600
     25 C23          1.8560     0.1330     0.7330 ca         1 7SK      -0.067000
     26 C25         -0.1010     3.4030    -1.4300 ca         1 7SK      -0.074000
     27 C27         -2.2410     4.5940    -1.4800 ca         1 7SK      -0.125000
     28 C29         -2.0620     2.4610    -0.3550 ca         1 7SK      -0.060200
     29 H202         4.6530    -2.8740     1.0530 hc         1 7SK       0.047200
     30 H212         3.2730    -1.4450     2.4590 hc         1 7SK       0.057200
     31 H211         4.3570    -0.0720     2.2660 hc         1 7SK       0.057200
     32 H261        -0.4090     5.3200    -2.3940 ha         1 7SK       0.091000
     33 H281        -3.9040     3.6190    -0.4750 ha         1 7SK       0.103000
     34 H012        -4.2420     1.9890     1.2470 h1         1 7SK       0.053367
     35 H013        -4.4210     0.7550    -0.0380 h1         1 7SK       0.053367
     36 H011        -3.8260     0.2900     1.5810 h1         1 7SK       0.053367
     37 H041        -0.3360    -1.3560     0.9280 h1         1 7SK       0.050700
     38 H071        -1.2350    -4.0540     0.5100 hc         1 7SK       0.034589
     39 H073        -0.9980    -4.2620    -1.2350 hc         1 7SK       0.034589
     40 H072        -0.0340    -3.0710    -0.3610 hc         1 7SK       0.034589
     41 H083        -4.2660    -2.4110    -1.1790 hc         1 7SK       0.034589
     42 H082        -3.4000    -3.7750    -1.9140 hc         1 7SK       0.034589
     43 H081        -3.7790    -3.7980    -0.1810 hc         1 7SK       0.034589
     44 H093        -0.7230    -1.1330    -1.7550 hc         1 7SK       0.034589
     45 H092        -1.7650    -2.0630    -2.8310 hc         1 7SK       0.034589
     46 H091        -2.4330    -0.6750    -1.9520 hc         1 7SK       0.034589
     47 H161         3.2800    -0.2090    -2.8760 ha         1 7SK       0.109000
     48 H192         6.2350    -0.3300     0.3510 h1         1 7SK       0.039700
     49 H191         6.6100    -1.9700    -0.2320 h1         1 7SK       0.039700
     50 H231         1.4650     0.2430     1.7400 ha         1 7SK       0.165000
     51 H251         0.9530     3.3320    -1.6850 ha         1 7SK       0.106000
     52 H271        -2.8290     5.4560    -1.7890 ha         1 7SK       0.090000
     53 C01         -3.8140     1.0750     0.8180 c3         1 7SK       0.063900
     54 H151         1.0330     0.7920    -2.5170 ha         1 7SK       0.110000
     55 H201         5.7690    -2.0440     2.1400 hc         1 7SK       0.047200
@<TRIPOS>BOND
     1     1    13 1   
     2     1    19 1   
     3     1    20 1   
     4     2     8 1   
     5     2    12 2   
     6     2    21 1   
     7     3    21 ar  
     8     3    22 ar  
     9     3    54 1   
    10     4     7 ar  
    11     4    22 ar  
    12     4    23 1   
    13     5     6 1   
    14     5    24 1   
    15     5    29 1   
    16     5    55 1   
    17     6     7 1   
    18     6    30 1   
    19     6    31 1   
    20     7    25 ar  
    21     8    26 ar  
    22     8    28 ar  
    23     9    26 ar  
    24     9    27 ar  
    25     9    32 1   
    26    10    27 ar  
    27    10    28 ar  
    28    10    33 1   
    29    11    12 1   
    30    11    28 1   
    31    11    53 1   
    32    12    13 1   
    33    13    14 1   
    34    13    37 1   
    35    14    15 1   
    36    15    16 1   
    37    15    17 1   
    38    15    18 1   
    39    16    38 1   
    40    16    39 1   
    41    16    40 1   
    42    17    41 1   
    43    17    42 1   
    44    17    43 1   
    45    18    44 1   
    46    18    45 1   
    47    18    46 1   
    48    21    25 ar  
    49    22    47 1   
    50    23    24 1   
    51    24    48 1   
    52    24    49 1   
    53    25    50 1   
    54    26    51 1   
    55    27    52 1   
    56    34    53 1   
    57    35    53 1   
    58    36    53 1   
@<TRIPOS>SUBSTRUCTURE
     1 7SK         1 TEMP              0 ****  ****    0 ROOT
