@<TRIPOS>MOLECULE
7SL
   23    24     1     0     0
SMALL
abcg2


@<TRIPOS>ATOM
      1 C10         22.7510   -20.2840    24.4510 cc         1 7SL      -0.184000
      2 C13         23.1190   -25.0010    24.7950 cc         1 7SL      -0.133000
      3 C01         21.9230   -29.7690    25.6890 c3         1 7SL       0.097300
      4 C04         22.2890   -26.0670    25.1740 cc         1 7SL       0.190500
      5 C07         22.3270   -23.8820    24.9460 cd         1 7SL      -0.197500
      6 C08         22.6130   -22.4890    24.7150 cd         1 7SL       0.193500
      7 C09         21.8840   -21.3470    24.8350 cc         1 7SL      -0.172000
      8 C11         23.9320   -20.8620    24.1280 cd         1 7SL       0.135900
      9 N02         21.7090   -28.3440    25.6120 ns         1 7SL      -0.496900
     10 N05         21.0880   -25.6410    25.5290 nd         1 7SL      -0.510800
     11 N06         21.1290   -24.3310    25.3840 na         1 7SL       0.018800
     12 O12         23.8580   -22.1980    24.2850 os         1 7SL      -0.219000
     13 O14         23.7780   -27.8600    24.8470 o          1 7SL      -0.599100
     14 H1          22.5220   -19.2320    24.4200 ha         1 7SL       0.146000
     15 H2          24.1440   -25.0440    24.4680 ha         1 7SL       0.172000
     16 H3          21.0090   -30.2350    26.0450 h1         1 7SL       0.040033
     17 H4          22.1670   -30.1940    24.7140 h1         1 7SL       0.040033
     18 H5          22.7270   -30.0200    26.3810 h1         1 7SL       0.040033
     19 H6          20.8580   -21.2690    25.1580 ha         1 7SL       0.138000
     20 H7          24.8750   -20.4680    23.7850 h4         1 7SL       0.059100
     21 H8          20.8130   -27.9700    25.8760 hn         1 7SL       0.332500
     22 H9          20.3080   -23.7830    25.5990 hn         1 7SL       0.378000
     23 C03         22.6610   -27.5010    25.1950 c          1 7SL       0.529600
@<TRIPOS>BOND
     1     1     7 1   
     2     1     8 2   
     3     1    14 1   
     4     2     4 1   
     5     2     5 2   
     6     2    15 1   
     7     3     9 1   
     8     3    16 1   
     9     3    17 1   
    10     3    18 1   
    11     4    10 2   
    12     4    23 1   
    13     5     6 1   
    14     5    11 1   
    15     6     7 2   
    16     6    12 1   
    17     7    19 1   
    18     8    12 1   
    19     8    20 1   
    20     9    21 1   
    21     9    23 1   
    22    10    11 1   
    23    11    22 1   
    24    13    23 2   
@<TRIPOS>SUBSTRUCTURE
     1 7SL         1 TEMP              0 ****  ****    0 ROOT
