@<TRIPOS>MOLECULE
7SL
   23    24     1     0     0
SMALL
No Charge or Current Charge


@<TRIPOS>ATOM
      1 C10         22.7670   -20.3170    24.4450 cc         1 7SL      -0.184000
      2 C13         23.0280   -24.9730    24.8310 cc         1 7SL      -0.133000
      3 C01         21.9500   -29.8260    25.6770 c3         1 7SL       0.097300
      4 C04         22.1910   -26.0410    25.2140 cc         1 7SL       0.190500
      5 C07         22.2810   -23.8460    24.9620 cd         1 7SL      -0.197500
      6 C08         22.7240   -22.5100    24.6810 cd         1 7SL       0.193500
      7 C09         21.9450   -21.3970    24.8240 cc         1 7SL      -0.172000
      8 C11         23.9830   -20.8500    24.1000 cd         1 7SL       0.135900
      9 N02         21.7330   -28.3800    25.6020 ns         1 7SL      -0.496900
     10 N05         20.9690   -25.6400    25.5750 nd         1 7SL      -0.510800
     11 N06         21.0240   -24.2520    25.4160 na         1 7SL       0.018800
     12 O12         23.9910   -22.2220    24.2360 os         1 7SL      -0.219000
     13 O14         23.8100   -27.8090    24.8620 o          1 7SL      -0.599100
     14 H1          22.4830   -19.2690    24.4310 ha         1 7SL       0.146000
     15 H2          24.0590   -25.0600    24.5020 ha         1 7SL       0.172000
     16 H3          21.0330   -30.3160    26.0270 h1         1 7SL       0.040033
     17 H4          22.2110   -30.2120    24.6830 h1         1 7SL       0.040033
     18 H5          22.7670   -30.0410    26.3780 h1         1 7SL       0.040033
     19 H6          20.9130   -21.3360    25.1560 ha         1 7SL       0.138000
     20 H7          24.8910   -20.3750    23.7530 h4         1 7SL       0.059100
     21 H8          20.8270   -28.0010    25.8600 hn         1 7SL       0.332500
     22 H9          20.2220   -23.6560    25.6190 hn         1 7SL       0.378000
     23 C03         22.6820   -27.4610    25.1970 c          1 7SL       0.529600
@<TRIPOS>BOND
     1     1     7 1   
     2     1     8 2   
     3     1    14 1   
     4     2     4 1   
     5     2     5 2   
     6     2    15 1   
     7     3     9 1   
     8     3    16 1   
     9     3    17 1   
    10     3    18 1   
    11     4    10 2   
    12     4    23 1   
    13     5     6 1   
    14     5    11 1   
    15     6     7 2   
    16     6    12 1   
    17     7    19 1   
    18     8    12 1   
    19     8    20 1   
    20     9    21 1   
    21     9    23 1   
    22    10    11 1   
    23    11    22 1   
    24    13    23 2   
@<TRIPOS>SUBSTRUCTURE
     1 7SL         1 TEMP              0 ****  ****    0 ROOT
