@<TRIPOS>MOLECULE
7SO
   57    61     1     0     0
SMALL
abcg2


@<TRIPOS>ATOM
      1 C10        -10.4920     5.6740     7.4400 cg         1 7SO      -0.022000
      2 C11         -9.4990     5.4520     6.4600 cc         1 7SO      -0.117000
      3 C12         -9.4280     4.4120     5.5380 cd         1 7SO      -0.130000
      4 C16         -8.3460     6.2310     6.1880 cc         1 7SO       0.282900
      5 C18        -10.3860     4.1080    14.5340 cc         1 7SO      -0.165000
      6 C19        -10.0890     5.2180    13.7740 cd         1 7SO      -0.026000
      7 C20         -9.1130     6.2430    14.1580 ca         1 7SO      -0.012000
      8 C21         -8.3360     6.9020    13.2040 ca         1 7SO      -0.040000
      9 C22         -7.3910     7.8510    13.6020 ca         1 7SO      -0.021000
     10 C23         -6.6140     8.5180    12.6070 cg         1 7SO       0.329000
     11 C25         -7.1960     8.1530    14.9540 ca         1 7SO      -0.071000
     12 C26         -7.9660     7.4950    15.9010 ca         1 7SO      -0.120000
     13 C27         -8.9140     6.5590    15.5090 ca         1 7SO      -0.085000
     14 C29        -13.2300     2.4700    15.1520 c          1 7SO       0.590100
     15 C02        -11.1230     5.9270    11.4350 c          1 7SO       0.603600
     16 C03        -10.8930     5.1030    12.5830 cd         1 7SO      -0.244600
     17 C04        -11.6330     3.9200    12.7000 cc         1 7SO       0.136400
     18 C06        -12.7040     4.1740    10.7690 cd         1 7SO       0.522800
     19 C08        -12.3530     6.0920     9.2960 c3         1 7SO       0.195100
     20 C09        -11.3350     5.8800     8.2770 c1         1 7SO      -0.186100
     21 C31        -15.0090     1.2690    16.4020 ca         1 7SO       0.030000
     22 C32        -15.4410     0.0150    16.8600 ca         1 7SO      -0.003000
     23 C34        -16.6190    -0.0980    17.5800 ca         1 7SO       0.374900
     24 C36        -16.9850     2.1440    17.4450 ca         1 7SO       0.361900
     25 C37        -15.8250     2.3590    16.7190 ca         1 7SO      -0.186000
     26 N05        -12.5360     3.4310    11.8200 nc         1 7SO      -0.639100
     27 N07        -12.0670     5.3550    10.5420 n          1 7SO      -0.340300
     28 N13         -8.3150     4.6060     4.8110 na         1 7SO       0.120800
     29 N15         -7.6400     5.7130     5.1920 nd         1 7SO      -0.522800
     30 N17        -11.3070     3.3200    13.8790 na         1 7SO       0.035000
     31 N24         -5.9910     9.0590    11.8010 n1         1 7SO      -0.458000
     32 N30        -13.8280     1.3570    15.6790 ns         1 7SO      -0.150000
     33 N35        -17.3920     0.9470    17.8760 nb         1 7SO      -0.671000
     34 O38        -13.6590     3.6030    15.2470 o          1 7SO      -0.537100
     35 CL33       -14.5080    -1.4210    16.5340 cl         1 7SO      -0.201000
     36 H1         -10.0830     3.5750     5.3670 h4         1 7SO       0.157000
     37 H2          -8.0240     7.1340     6.6820 h4         1 7SO       0.051100
     38 H3          -9.9860     3.7970    15.4850 h4         1 7SO       0.153000
     39 H4          -8.4700     6.6890    12.1550 ha         1 7SO       0.146000
     40 H5          -6.4610     8.8910    15.2460 ha         1 7SO       0.125000
     41 H6          -7.8350     7.7210    16.9510 ha         1 7SO       0.118000
     42 H7          -9.5220     6.0740    16.2620 ha         1 7SO       0.113000
     43 H8         -12.1560     1.4480    13.5940 h1         1 7SO       0.089700
     44 H9         -11.2410     1.6390    15.0890 h1         1 7SO       0.089700
     45 H10        -13.4000     3.8650     9.9990 h5         1 7SO       0.052800
     46 H11        -12.4270     7.1490     9.5460 h1         1 7SO       0.078700
     47 H12        -13.3270     5.7610     8.9380 h1         1 7SO       0.078700
     48 H13         -7.7860     4.3690     2.8030 h1         1 7SO       0.058700
     49 H14         -6.8120     3.4310     3.9600 h1         1 7SO       0.058700
     50 H15         -8.4820     2.9370     3.5970 h1         1 7SO       0.058700
     51 H16        -16.9390    -1.0750    17.9250 h4         1 7SO       0.035100
     52 H17        -17.6200     2.9880    17.6910 h4         1 7SO       0.029100
     53 H18        -15.5550     3.3510    16.4010 ha         1 7SO       0.162000
     54 H19        -13.3540     0.4770    15.5240 hn         1 7SO       0.165000
     55 C14         -7.8150     3.7860     3.7230 c3         1 7SO       0.076900
     56 O01        -10.6230     7.0180    11.1670 o          1 7SO      -0.531000
     57 C28        -11.9320     2.1380    14.4090 c3         1 7SO      -0.003400
@<TRIPOS>BOND
     1     1     2 1   
     2     1    20 3   
     3     2     3 2   
     4     2     4 1   
     5     3    28 1   
     6     3    36 1   
     7     4    29 2   
     8     4    37 1   
     9     5     6 2   
    10     5    30 1   
    11     5    38 1   
    12     6     7 1   
    13     6    16 1   
    14     7     8 ar  
    15     7    13 ar  
    16     8     9 ar  
    17     8    39 1   
    18     9    10 1   
    19     9    11 ar  
    20    10    31 3   
    21    11    12 ar  
    22    11    40 1   
    23    12    13 ar  
    24    12    41 1   
    25    13    42 1   
    26    14    32 1   
    27    14    34 2   
    28    14    57 1   
    29    15    16 1   
    30    15    27 1   
    31    15    56 2   
    32    16    17 2   
    33    17    26 1   
    34    17    30 1   
    35    18    26 2   
    36    18    27 1   
    37    18    45 1   
    38    19    20 1   
    39    19    27 1   
    40    19    46 1   
    41    19    47 1   
    42    21    22 ar  
    43    21    25 ar  
    44    21    32 1   
    45    22    23 ar  
    46    22    35 1   
    47    23    33 ar  
    48    23    51 1   
    49    24    25 ar  
    50    24    33 ar  
    51    24    52 1   
    52    25    53 1   
    53    28    29 1   
    54    28    55 1   
    55    30    57 1   
    56    32    54 1   
    57    43    57 1   
    58    44    57 1   
    59    48    55 1   
    60    49    55 1   
    61    50    55 1   
@<TRIPOS>SUBSTRUCTURE
     1 7SO         1 TEMP              0 ****  ****    0 ROOT
