@<TRIPOS>MOLECULE
7SO
   57    61     1     0     0
SMALL
No Charge or Current Charge


@<TRIPOS>ATOM
      1 C10        -10.7850     4.7580     7.7450 cg         1 7SO      -0.022000
      2 C11         -9.8330     4.5120     6.7210 cc         1 7SO      -0.117000
      3 C12        -10.0030     3.8340     5.5540 cd         1 7SO      -0.130000
      4 C16         -8.4980     4.9460     6.7420 cc         1 7SO       0.282900
      5 C18         -9.8920     4.2770    15.1200 cc         1 7SO      -0.165000
      6 C19         -9.8380     5.2430    14.1400 cd         1 7SO      -0.026000
      7 C20         -9.1420     6.5360    14.3250 ca         1 7SO      -0.012000
      8 C21         -8.5650     7.2260    13.2390 ca         1 7SO      -0.040000
      9 C22         -7.8880     8.4460    13.4330 ca         1 7SO      -0.021000
     10 C23         -7.3090     9.1340    12.3120 cg         1 7SO       0.329000
     11 C25         -7.7660     8.9800    14.7290 ca         1 7SO      -0.071000
     12 C26         -8.3050     8.2850    15.8230 ca         1 7SO      -0.120000
     13 C27         -8.9790     7.0670    15.6230 ca         1 7SO      -0.085000
     14 C29        -12.2460     2.0200    16.0840 c          1 7SO       0.590100
     15 C02        -11.1620     5.4910    11.8430 c          1 7SO       0.603600
     16 C03        -10.6840     4.8130    13.0680 cd         1 7SO      -0.244600
     17 C04        -11.1220     3.5590    13.3570 cc         1 7SO       0.136400
     18 C06        -12.3080     3.3940    11.4120 cd         1 7SO       0.522800
     19 C08        -12.4890     5.2220     9.7620 c3         1 7SO       0.195100
     20 C09        -11.5750     4.9700     8.6420 c1         1 7SO      -0.186100
     21 C31        -14.7690     2.0030    15.5910 ca         1 7SO       0.030000
     22 C32        -15.7080     1.7940    14.5600 ca         1 7SO      -0.003000
     23 C34        -17.0840     1.8460    14.8620 ca         1 7SO       0.374900
     24 C36        -16.6650     2.2970    17.0920 ca         1 7SO       0.361900
     25 C37        -15.2770     2.2630    16.8830 ca         1 7SO      -0.186000
     26 N05        -11.9360     2.8100    12.5520 nc         1 7SO      -0.639100
     27 N07        -11.9760     4.6860    11.0380 n          1 7SO      -0.340300
     28 N13         -8.7510     3.8950     4.9280 na         1 7SO       0.120800
     29 N15         -7.8080     4.5930     5.6740 nd         1 7SO      -0.522800
     30 N17        -10.6400     3.2180    14.6120 na         1 7SO       0.035000
     31 N24         -6.8300     9.6880    11.4010 n1         1 7SO      -0.458000
     32 N30        -13.3800     1.9550    15.2850 ns         1 7SO      -0.150000
     33 N35        -17.5650     2.0930    16.1040 nb         1 7SO      -0.671000
     34 O38        -12.2720     2.1160    17.3060 o          1 7SO      -0.537100
     35 Cl33       -15.1870     1.4620    12.9040 cl         1 7SO      -0.201000
     36 H1         -10.8650     3.3340     5.1300 h4         1 7SO       0.157000
     37 H2          -8.0060     5.5170     7.5190 h4         1 7SO       0.051100
     38 H3          -9.4350     4.2400    16.1010 h4         1 7SO       0.153000
     39 H4          -8.5950     6.7940    12.2430 ha         1 7SO       0.146000
     40 H5          -7.2440     9.9210    14.8910 ha         1 7SO       0.125000
     41 H6          -8.2030     8.6900    16.8270 ha         1 7SO       0.118000
     42 H7          -9.3960     6.5530    16.4850 ha         1 7SO       0.113000
     43 H8         -10.9780     1.1400    14.5930 h1         1 7SO       0.089700
     44 H9         -10.1200     1.7490    16.0280 h1         1 7SO       0.089700
     45 H10        -12.9370     2.8420    10.7240 h5         1 7SO       0.052800
     46 H11        -12.6670     6.3020     9.8480 h1         1 7SO       0.078700
     47 H12        -13.4590     4.7590     9.5360 h1         1 7SO       0.078700
     48 H13         -8.0990     4.1090     2.9370 h1         1 7SO       0.058700
     49 H14         -7.5670     2.6080     3.7540 h1         1 7SO       0.058700
     50 H15         -9.2630     2.7790     3.2120 h1         1 7SO       0.058700
     51 H16        -17.8260     1.6850    14.0810 h4         1 7SO       0.035100
     52 H17        -17.0710     2.4980    18.0830 h4         1 7SO       0.029100
     53 H18        -14.6300     2.4470    17.7330 ha         1 7SO       0.162000
     54 H19        -13.1830     1.8800    14.2930 hn         1 7SO       0.165000
     55 C14         -8.3980     3.3110     3.6270 c3         1 7SO       0.076900
     56 O01        -10.9070     6.6510    11.5550 o          1 7SO      -0.531000
     57 C28        -10.9260     1.9610    15.3180 c3         1 7SO      -0.003400
@<TRIPOS>BOND
     1     1     2 1   
     2     1    20 3   
     3     2     3 2   
     4     2     4 1   
     5     3    28 1   
     6     3    36 1   
     7     4    29 2   
     8     4    37 1   
     9     5     6 2   
    10     5    30 1   
    11     5    38 1   
    12     6     7 1   
    13     6    16 1   
    14     7     8 ar  
    15     7    13 ar  
    16     8     9 ar  
    17     8    39 1   
    18     9    10 1   
    19     9    11 ar  
    20    10    31 3   
    21    11    12 ar  
    22    11    40 1   
    23    12    13 ar  
    24    12    41 1   
    25    13    42 1   
    26    14    32 1   
    27    14    34 2   
    28    14    57 1   
    29    15    16 1   
    30    15    27 1   
    31    15    56 2   
    32    16    17 2   
    33    17    26 1   
    34    17    30 1   
    35    18    26 2   
    36    18    27 1   
    37    18    45 1   
    38    19    20 1   
    39    19    27 1   
    40    19    46 1   
    41    19    47 1   
    42    21    22 ar  
    43    21    25 ar  
    44    21    32 1   
    45    22    23 ar  
    46    22    35 1   
    47    23    33 ar  
    48    23    51 1   
    49    24    25 ar  
    50    24    33 ar  
    51    24    52 1   
    52    25    53 1   
    53    28    29 1   
    54    28    55 1   
    55    30    57 1   
    56    32    54 1   
    57    43    57 1   
    58    44    57 1   
    59    48    55 1   
    60    49    55 1   
    61    50    55 1   
@<TRIPOS>SUBSTRUCTURE
     1 7SO         1 TEMP              0 ****  ****    0 ROOT
