@<TRIPOS>MOLECULE
7SQ
   21    22     1     0     0
SMALL
abcg2


@<TRIPOS>ATOM
      1 N1          -6.0920     3.3940     5.1150 nc         1 7SQ      -0.346000
      2 C2          -2.7560     6.2160     6.1340 ca         1 7SQ      -0.066000
      3 C3          -3.0740     4.9090     5.7970 ca         1 7SQ      -0.000200
      4 C4          -2.0780     4.0030     5.4690 ca         1 7SQ      -0.052000
      5 C5          -0.7580     4.4150     5.4720 ca         1 7SQ      -0.101000
      6 C6          -0.4330     5.7160     5.8160 ca         1 7SQ       0.160000
      7 C7          -5.4390     4.9100     6.5740 cd         1 7SQ      -0.198000
      8 C8          -6.5090     4.1870     6.1280 cc         1 7SQ       0.197900
      9 N           -4.4230     4.5000     5.7850 na         1 7SQ       0.209000
     10 C1          -1.4310     6.6280     6.1560 ca         1 7SQ      -0.184300
     11 F           -0.2880     8.1060     7.5830 f          1 7SQ      -0.105000
     12 F1          -0.4850     8.6840     5.5190 f          1 7SQ      -0.105000
     13 F2          -2.1880     8.7540     6.8250 f          1 7SQ      -0.105000
     14 N2          -4.8410     3.5880     4.9120 nd         1 7SQ      -0.191800
     15 CL           1.2310     6.1680     5.8100 cl         1 7SQ      -0.153000
     16 H           -3.5450     6.9180     6.3660 ha         1 7SQ       0.145000
     17 H1          -2.3200     2.9810     5.2160 ha         1 7SQ       0.154000
     18 H2           0.0240     3.7130     5.2160 ha         1 7SQ       0.145000
     19 H3          -5.3240     5.6300     7.3650 h4         1 7SQ       0.173000
     20 H4          -7.5270     4.1930     6.4790 h4         1 7SQ       0.055100
     21 C           -1.0970     8.0470     6.5220 c3         1 7SQ       0.367300
@<TRIPOS>BOND
     1     1     8 1   
     2     1    14 2   
     3     2     3 ar  
     4     2    10 ar  
     5     2    16 1   
     6     3     4 ar  
     7     3     9 1   
     8     4     5 ar  
     9     4    17 1   
    10     5     6 ar  
    11     5    18 1   
    12     6    10 ar  
    13     6    15 1   
    14     7     8 2   
    15     7     9 1   
    16     7    19 1   
    17     8    20 1   
    18     9    14 1   
    19    10    21 1   
    20    11    21 1   
    21    12    21 1   
    22    13    21 1   
@<TRIPOS>SUBSTRUCTURE
     1 7SQ         1 TEMP              0 ****  ****    0 ROOT
