@<TRIPOS>MOLECULE
7SQ
   21    22     1     0     0
SMALL
No Charge or Current Charge


@<TRIPOS>ATOM
      1 N1          -6.3040     3.6580     4.9570 nc         1 7SQ      -0.346000
      2 C2          -2.8010     6.2630     6.0020 ca         1 7SQ      -0.066000
      3 C3          -3.1350     4.9270     5.6980 ca         1 7SQ      -0.000200
      4 C4          -2.1130     3.9830     5.4990 ca         1 7SQ      -0.052000
      5 C5          -0.7680     4.3720     5.6090 ca         1 7SQ      -0.101000
      6 C6          -0.4320     5.7010     5.9160 ca         1 7SQ       0.160000
      7 C7          -5.2840     4.6960     6.6790 cd         1 7SQ      -0.198000
      8 C8          -6.4450     4.1360     6.2370 cc         1 7SQ       0.197900
      9 N           -4.4710     4.5410     5.5870 na         1 7SQ       0.209000
     10 C1          -1.4480     6.6680     6.1170 ca         1 7SQ      -0.184300
     11 F           -0.3890     8.2230     7.5990 f          1 7SQ      -0.105000
     12 F1          -0.3550     8.7010     5.4740 f          1 7SQ      -0.105000
     13 F2          -2.1870     8.9110     6.6090 f          1 7SQ      -0.105000
     14 N2          -5.0750     3.8850     4.5550 nd         1 7SQ      -0.191800
     15 Cl           1.2810     6.1060     6.0360 cl         1 7SQ      -0.153000
     16 H           -3.6060     6.9810     6.1440 ha         1 7SQ       0.145000
     17 H1          -2.3590     2.9500     5.2610 ha         1 7SQ       0.154000
     18 H2           0.0200     3.6390     5.4560 ha         1 7SQ       0.145000
     19 H3          -4.9980     5.1560     7.6160 h4         1 7SQ       0.173000
     20 H4          -7.3870     4.0350     6.7600 h4         1 7SQ       0.055100
     21 C           -1.0960     8.1270     6.4500 c3         1 7SQ       0.367300
@<TRIPOS>BOND
     1     1     8 1   
     2     1    14 2   
     3     2     3 ar  
     4     2    10 ar  
     5     2    16 1   
     6     3     4 ar  
     7     3     9 1   
     8     4     5 ar  
     9     4    17 1   
    10     5     6 ar  
    11     5    18 1   
    12     6    10 ar  
    13     6    15 1   
    14     7     8 2   
    15     7     9 1   
    16     7    19 1   
    17     8    20 1   
    18     9    14 1   
    19    10    21 1   
    20    11    21 1   
    21    12    21 1   
    22    13    21 1   
@<TRIPOS>SUBSTRUCTURE
     1 7SQ         1 TEMP              0 ****  ****    0 ROOT
