@<TRIPOS>MOLECULE
7SR
   71    75     1     0     0
SMALL
bcc


@<TRIPOS>ATOM
      1 C10         67.7010    -5.9160    53.5950 c3         1 7SR      -0.083400
      2 C17         66.0080    -4.1870    55.8480 c6         1 7SR       0.264100
      3 C20         65.0460    -1.9700    52.9730 c3         1 7SR       0.138300
      4 C21         63.8180    -2.7410    52.5590 ca         1 7SR      -0.094300
      5 C22         63.9050    -3.8970    51.7280 ca         1 7SR      -0.017000
      6 C24         65.1650    -5.4860    50.3970 ca         1 7SR      -0.122000
      7 C26         62.7920    -5.7790    50.6220 ca         1 7SR      -0.120000
      8 C28         61.4740    -4.1600    51.9250 ca         1 7SR      -0.106000
      9 C2          64.9970    -5.8330    57.2940 c          1 7SR       0.794100
     10 C4          65.7610    -3.6100    58.1800 c6         1 7SR       0.100000
     11 C5          67.2620    -3.6350    58.3860 c6         1 7SR      -0.190400
     12 C6          68.0360    -3.4430    57.1050 c          1 7SR       0.714500
     13 C8          68.0790    -3.5980    54.6790 c6         1 7SR       0.030700
     14 C9          68.7160    -4.8610    54.0530 c3         1 7SR      -0.057700
     15 C11         68.2780    -6.9090    52.5950 c3         1 7SR      -0.086100
     16 C18         65.2710    -3.0440    55.1770 c6         1 7SR       0.077000
     17 C23         65.1240    -4.3600    51.1750 ca         1 7SR      -0.118000
     18 C25         63.9890    -6.2120    50.1230 ca         1 7SR      -0.121000
     19 C27         62.7170    -4.6180    51.4260 ca         1 7SR      -0.041000
     20 C29         61.4100    -3.0340    52.6930 ca         1 7SR      -0.133000
     21 C30         62.5900    -2.3320    53.0120 ca         1 7SR      -0.122000
     22 C31         67.2000    -2.8880    53.6510 c          1 7SR       0.699500
     23 C35         63.9060    -7.4150    58.8180 c3         1 7SR       0.153300
     24 C36         62.4120    -7.5250    58.6300 ca         1 7SR      -0.112300
     25 C37         61.5930    -7.8740    59.6970 ca         1 7SR      -0.114500
     26 C38         60.2170    -7.9890    59.5450 ca         1 7SR      -0.105000
     27 C39         59.6580    -7.7440    58.3020 ca         1 7SR      -0.012900
     28 C41         60.4510    -7.3880    57.2190 ca         1 7SR      -0.105000
     29 C42         61.8220    -7.2820    57.3910 ca         1 7SR      -0.114500
     30 C46         69.7570    -5.4620    54.9910 c3         1 7SR      -0.086100
     31 N3          65.4210    -4.5290    57.1080 n          1 7SR      -0.493800
     32 N7          67.4210    -3.8260    55.9550 n          1 7SR      -0.491800
     33 N19         65.8880    -2.7130    53.9060 n          1 7SR      -0.469800
     34 N34         64.4320    -6.1090    58.4920 ns         1 7SR      -0.576900
     35 O1          65.1080    -6.6770    56.4140 o          1 7SR      -0.625100
     36 O32         67.7280    -2.5170    52.6110 o          1 7SR      -0.640500
     37 BR1         57.7890    -7.8980    58.0750 br         1 7SR      -0.096100
     38 H1          66.8380    -5.4330    53.1280 hc         1 7SR       0.047700
     39 H2          67.3160    -6.4600    54.4630 hc         1 7SR       0.047700
     40 H3          65.9310    -5.0580    55.2030 h2         1 7SR       0.118700
     41 H4          65.6500    -1.6920    52.1120 h1         1 7SR       0.067200
     42 H5          64.7310    -1.0400    53.4560 h1         1 7SR       0.067200
     43 H6          66.1090    -5.8190    49.9860 ha         1 7SR       0.134000
     44 H7          61.8790    -6.3200    50.4040 ha         1 7SR       0.130000
     45 H8          60.5760    -4.7160    51.6850 ha         1 7SR       0.132000
     46 H9          65.4230    -2.6070    57.9160 h1         1 7SR       0.056700
     47 H10         65.2530    -3.8550    59.1070 h1         1 7SR       0.056700
     48 H11         67.5580    -4.5970    58.8150 hc         1 7SR       0.083200
     49 H12         67.5740    -2.8620    59.0880 hc         1 7SR       0.083200
     50 H13         68.8950    -2.8980    54.8710 h1         1 7SR       0.108700
     51 H14         69.2380    -4.4970    53.1630 hc         1 7SR       0.070700
     52 H15         67.5130    -7.6130    52.2670 hc         1 7SR       0.032033
     53 H16         68.6550    -6.3940    51.7100 hc         1 7SR       0.032033
     54 H17         69.0980    -7.4920    53.0150 hc         1 7SR       0.032033
     55 H18         65.2340    -2.1550    55.8150 h1         1 7SR       0.057700
     56 H19         64.2450    -3.3640    54.9950 h1         1 7SR       0.057700
     57 H20         66.0410    -3.8150    51.3470 ha         1 7SR       0.151000
     58 H21         64.0360    -7.1020    49.5100 ha         1 7SR       0.132000
     59 H22         60.4600    -2.6790    53.0700 ha         1 7SR       0.133000
     60 H23         62.5240    -1.4520    53.6410 ha         1 7SR       0.126000
     61 H24         64.4180    -8.1560    58.2070 h1         1 7SR       0.070700
     62 H25         64.1570    -7.6350    59.8570 h1         1 7SR       0.070700
     63 H26         62.0280    -8.0610    60.6720 ha         1 7SR       0.142500
     64 H27         59.6020    -8.2620    60.3920 ha         1 7SR       0.149500
     65 H28         60.0150    -7.1980    56.2470 ha         1 7SR       0.149500
     66 H29         62.4340    -7.0160    56.5390 ha         1 7SR       0.142500
     67 H30         70.5070    -4.7270    55.2810 hc         1 7SR       0.038700
     68 H31         69.2940    -5.8530    55.8980 hc         1 7SR       0.038700
     69 H32         70.2790    -6.2890    54.5100 hc         1 7SR       0.038700
     70 H33         64.1530    -5.3640    59.1080 hn         1 7SR       0.314500
     71 O33         69.1730    -3.0000    57.1230 o          1 7SR      -0.626500
@<TRIPOS>BOND
     1     1    14 1   
     2     1    15 1   
     3     1    38 1   
     4     1    39 1   
     5     2    16 1   
     6     2    31 1   
     7     2    32 1   
     8     2    40 1   
     9     3     4 1   
    10     3    33 1   
    11     3    41 1   
    12     3    42 1   
    13     4     5 ar  
    14     4    21 ar  
    15     5    17 ar  
    16     5    19 ar  
    17     6    17 ar  
    18     6    18 ar  
    19     6    43 1   
    20     7    18 ar  
    21     7    19 ar  
    22     7    44 1   
    23     8    19 ar  
    24     8    20 ar  
    25     8    45 1   
    26     9    31 1   
    27     9    34 1   
    28     9    35 2   
    29    10    11 1   
    30    10    31 1   
    31    10    46 1   
    32    10    47 1   
    33    11    12 1   
    34    11    48 1   
    35    11    49 1   
    36    12    32 1   
    37    12    71 2   
    38    13    14 1   
    39    13    22 1   
    40    13    32 1   
    41    13    50 1   
    42    14    30 1   
    43    14    51 1   
    44    15    52 1   
    45    15    53 1   
    46    15    54 1   
    47    16    33 1   
    48    16    55 1   
    49    16    56 1   
    50    17    57 1   
    51    18    58 1   
    52    20    21 ar  
    53    20    59 1   
    54    21    60 1   
    55    22    33 1   
    56    22    36 2   
    57    23    24 1   
    58    23    34 1   
    59    23    61 1   
    60    23    62 1   
    61    24    25 ar  
    62    24    29 ar  
    63    25    26 ar  
    64    25    63 1   
    65    26    27 ar  
    66    26    64 1   
    67    27    28 ar  
    68    27    37 1   
    69    28    29 ar  
    70    28    65 1   
    71    29    66 1   
    72    30    67 1   
    73    30    68 1   
    74    30    69 1   
    75    34    70 1   
@<TRIPOS>SUBSTRUCTURE
     1 7SR         1 TEMP              0 ****  ****    0 ROOT
