@<TRIPOS>MOLECULE
7SR
   71    75     1     0     0
SMALL
No Charge or Current Charge


@<TRIPOS>ATOM
      1 C10         68.1680    -5.8100    53.5600 c3         1 7SR      -0.083400
      2 C17         66.0880    -4.2010    55.7620 c6         1 7SR       0.264100
      3 C20         64.9640    -1.9500    52.8870 c3         1 7SR       0.138300
      4 C21         63.6790    -2.7480    52.6520 ca         1 7SR      -0.094300
      5 C22         63.6710    -4.0030    51.9860 ca         1 7SR      -0.017000
      6 C24         64.8200    -5.8230    50.8140 ca         1 7SR      -0.104000
      7 C26         62.4280    -5.9670    51.2080 ca         1 7SR      -0.102000
      8 C28         61.2580    -4.1780    52.3620 ca         1 7SR      -0.088000
      9 C2          64.9120    -6.0430    56.9940 c          1 7SR       0.660100
     10 C4          65.7540    -3.9510    58.2050 c6         1 7SR       0.100000
     11 C5          67.2670    -3.9160    58.4410 c6         1 7SR      -0.190400
     12 C6          68.0200    -3.4550    57.1950 c          1 7SR       0.572000
     13 C8          68.1810    -3.4330    54.6540 c6         1 7SR       0.030700
     14 C9          69.0280    -4.5940    54.0180 c3         1 7SR      -0.057700
     15 C11         68.9160    -6.8380    52.6850 c3         1 7SR      -0.086100
     16 C18         65.3060    -3.0100    55.1790 c6         1 7SR       0.077000
     17 C23         64.8520    -4.5720    51.4520 ca         1 7SR      -0.100000
     18 C25         63.6100    -6.5220    50.6930 ca         1 7SR      -0.103000
     19 C27         62.4530    -4.7150    51.8510 ca         1 7SR      -0.041000
     20 C29         61.2660    -2.9340    53.0100 ca         1 7SR      -0.115000
     21 C30         62.4680    -2.2270    53.1550 ca         1 7SR      -0.104000
     22 C31         67.2580    -2.7580    53.5790 c          1 7SR       0.557000
     23 C35         63.7730    -7.7850    58.3960 c3         1 7SR       0.153300
     24 C36         62.2660    -7.6130    58.2680 ca         1 7SR      -0.112300
     25 C37         61.4820    -7.3330    59.4050 ca         1 7SR      -0.096500
     26 C38         60.0910    -7.1650    59.2830 ca         1 7SR      -0.087000
     27 C39         59.4790    -7.2730    58.0230 ca         1 7SR      -0.012900
     28 C41         60.2540    -7.5500    56.8850 ca         1 7SR      -0.087000
     29 C42         61.6440    -7.7200    57.0070 ca         1 7SR      -0.096500
     30 C46         70.1910    -5.0290    54.9450 c3         1 7SR      -0.086100
     31 N3          65.4880    -4.7590    56.9930 n          1 7SR      -0.426800
     32 N7          67.5100    -3.8380    55.9370 n          1 7SR      -0.424800
     33 N19         65.8840    -2.5660    53.8810 n          1 7SR      -0.402800
     34 N34         64.4660    -6.5110    58.2030 ns         1 7SR      -0.509900
     35 O1          64.8060    -6.7030    55.9730 o          1 7SR      -0.625100
     36 O32         67.7230    -2.3920    52.5070 o          1 7SR      -0.565000
     37 Br1         57.5890    -7.0410    57.8570 br         1 7SR      -0.096100
     38 H1          67.3050    -5.4500    52.9890 hc         1 7SR       0.047700
     39 H2          67.7680    -6.3280    54.4400 hc         1 7SR       0.047700
     40 H3          66.0560    -4.9900    54.9980 h2         1 7SR       0.118700
     41 H4          65.4660    -1.8110    51.9210 h1         1 7SR       0.067200
     42 H5          64.7080    -0.9440    53.2460 h1         1 7SR       0.067200
     43 H6          65.7360    -6.2500    50.4100 ha         1 7SR       0.116000
     44 H7          61.4930    -6.5140    51.1080 ha         1 7SR       0.112000
     45 H8          60.3220    -4.7220    52.2590 ha         1 7SR       0.114000
     46 H9          65.3800    -2.9280    58.0540 h1         1 7SR       0.056700
     47 H10         65.2450    -4.3460    59.0940 h1         1 7SR       0.056700
     48 H11         67.5790    -4.9530    58.6180 hc         1 7SR       0.083200
     49 H12         67.5610    -3.3180    59.3130 hc         1 7SR       0.083200
     50 H13         68.8880    -2.6250    54.8830 h1         1 7SR       0.108700
     51 H14         69.5060    -4.1910    53.1160 hc         1 7SR       0.070700
     52 H15         68.2200    -7.6070    52.3280 hc         1 7SR       0.032033
     53 H16         69.3640    -6.3520    51.8100 hc         1 7SR       0.032033
     54 H17         69.7090    -7.3410    53.2500 hc         1 7SR       0.032033
     55 H18         65.3300    -2.1680    55.8850 h1         1 7SR       0.057700
     56 H19         64.2570    -3.3100    55.0570 h1         1 7SR       0.057700
     57 H20         65.8030    -4.0550    51.5160 ha         1 7SR       0.133000
     58 H21         63.5870    -7.4900    50.1980 ha         1 7SR       0.114000
     59 H22         60.3410    -2.5220    53.4060 ha         1 7SR       0.115000
     60 H23         62.4600    -1.2700    53.6730 ha         1 7SR       0.108000
     61 H24         64.1310    -8.5190    57.6620 h1         1 7SR       0.070700
     62 H25         64.0180    -8.1720    59.3940 h1         1 7SR       0.070700
     63 H26         61.9490    -7.2440    60.3840 ha         1 7SR       0.124500
     64 H27         59.4900    -6.9480    60.1640 ha         1 7SR       0.131500
     65 H28         59.7800    -7.6320    55.9090 ha         1 7SR       0.131500
     66 H29         62.2400    -7.9300    56.1210 ha         1 7SR       0.124500
     67 H30         70.7660    -4.1560    55.2770 hc         1 7SR       0.038700
     68 H31         69.8130    -5.5480    55.8330 hc         1 7SR       0.038700
     69 H32         70.8860    -5.6980    54.4250 hc         1 7SR       0.038700
     70 H33         64.5810    -5.9030    59.0000 hn         1 7SR       0.314500
     71 O33         69.0330    -2.7790    57.3030 o          1 7SR      -0.551000
@<TRIPOS>BOND
     1     1    14 1   
     2     1    15 1   
     3     1    38 1   
     4     1    39 1   
     5     2    16 1   
     6     2    31 1   
     7     2    32 1   
     8     2    40 1   
     9     3     4 1   
    10     3    33 1   
    11     3    41 1   
    12     3    42 1   
    13     4     5 ar  
    14     4    21 ar  
    15     5    17 ar  
    16     5    19 ar  
    17     6    17 ar  
    18     6    18 ar  
    19     6    43 1   
    20     7    18 ar  
    21     7    19 ar  
    22     7    44 1   
    23     8    19 ar  
    24     8    20 ar  
    25     8    45 1   
    26     9    31 1   
    27     9    34 1   
    28     9    35 2   
    29    10    11 1   
    30    10    31 1   
    31    10    46 1   
    32    10    47 1   
    33    11    12 1   
    34    11    48 1   
    35    11    49 1   
    36    12    32 1   
    37    12    71 2   
    38    13    14 1   
    39    13    22 1   
    40    13    32 1   
    41    13    50 1   
    42    14    30 1   
    43    14    51 1   
    44    15    52 1   
    45    15    53 1   
    46    15    54 1   
    47    16    33 1   
    48    16    55 1   
    49    16    56 1   
    50    17    57 1   
    51    18    58 1   
    52    20    21 ar  
    53    20    59 1   
    54    21    60 1   
    55    22    33 1   
    56    22    36 2   
    57    23    24 1   
    58    23    34 1   
    59    23    61 1   
    60    23    62 1   
    61    24    25 ar  
    62    24    29 ar  
    63    25    26 ar  
    64    25    63 1   
    65    26    27 ar  
    66    26    64 1   
    67    27    28 ar  
    68    27    37 1   
    69    28    29 ar  
    70    28    65 1   
    71    29    66 1   
    72    30    67 1   
    73    30    68 1   
    74    30    69 1   
    75    34    70 1   
@<TRIPOS>SUBSTRUCTURE
     1 7SR         1 TEMP              0 ****  ****    0 ROOT
