@<TRIPOS>MOLECULE
7ST
   74    79     1     0     0
SMALL
bcc


@<TRIPOS>ATOM
      1 C01          8.6580    -4.2960    16.8770 c3         1 7ST      -0.048800
      2 C02          8.5990    -3.6420    15.5280 ca         1 7ST      -0.181300
      3 C03          9.4440    -2.5920    15.1990 ca         1 7ST      -0.058000
      4 C04          9.4350    -1.9640    13.9500 ca         1 7ST      -0.049000
      5 C05          8.5340    -2.4210    13.0010 ca         1 7ST      -0.019000
      6 C06          7.6740    -3.4740    13.3030 ca         1 7ST      -0.060000
      7 C07          6.7440    -3.9350    12.3280 cg         1 7ST       0.254800
      8 N08          5.9950    -4.3020    11.5330 n1         1 7ST      -0.371800
      9 C09          7.6980    -4.0910    14.5580 ca         1 7ST       0.183100
     10 O10          6.8420    -5.1010    14.7500 oh         1 7ST      -0.482100
     11 C11         10.3310    -0.8370    13.6790 cc         1 7ST      -0.022000
     12 C12         10.5850     0.1940    14.5450 cd         1 7ST      -0.137300
     13 N13         11.4350     1.0970    13.9600 na         1 7ST      -0.028100
     14 C14         11.9820     2.2710    14.5700 c3         1 7ST      -0.038700
     15 C15         13.4140     2.0360    15.0410 c          1 7ST       0.666100
     16 O16         13.9320     0.9440    15.0110 o          1 7ST      -0.542100
     17 N17         14.0030     3.1810    15.4860 ns         1 7ST      -0.473100
     18 C18         15.2920     3.3750    15.9570 ca         1 7ST       0.159600
     19 C19         16.2540     2.3790    16.0180 ca         1 7ST      -0.347300
     20 C20         17.5460     2.6890    16.4860 ca         1 7ST       0.716200
     21 N21         17.8550     3.9130    16.9190 nb         1 7ST      -0.761000
     22 C22         16.9340     4.8580    16.8720 ca         1 7ST       0.494200
     23 C23         15.6560     4.6590    16.3990 ca         1 7ST      -0.220900
     24 CL24        14.5350     5.9780    16.3770 cl         1 7ST      -0.109400
     25 N25         18.5500     1.7630    16.4980 nh         1 7ST      -0.771300
     26 C26         19.7450     1.9940    17.2940 c6         1 7ST       0.178300
     27 C27         20.9330     1.2890    16.6710 c6         1 7ST       0.118900
     28 O28         20.6890    -0.0870    16.4910 os         1 7ST      -0.395600
     29 C29         19.5750    -0.2800    15.6550 c6         1 7ST       0.118900
     30 C30         18.3130     0.3620    16.2100 c6         1 7ST       0.178300
     31 C31         11.7550     0.6500    12.7250 cd         1 7ST       0.181100
     32 N32         12.5930     1.2850    11.8810 nd         1 7ST      -0.635100
     33 C33         12.7670     0.6690    10.7630 cc         1 7ST       0.521800
     34 N34         12.2000    -0.5180    10.4280 n          1 7ST      -0.405300
     35 C35         12.4720    -1.0920     9.1100 c3         1 7ST       0.196100
     36 C36         11.3250    -0.9760     8.2200 c1         1 7ST      -0.184100
     37 C37         10.3740    -0.8630     7.4900 cg         1 7ST      -0.022000
     38 C38          9.2420    -0.7480     6.6530 cc         1 7ST      -0.179300
     39 C39          7.9780    -1.3580     6.8080 cc         1 7ST       0.344200
     40 N40          7.1620    -1.0140     5.8360 nd         1 7ST      -0.522800
     41 N41          7.8630    -0.1990     5.0500 na         1 7ST       0.113400
     42 C42          7.2580     0.3570     3.8640 c3         1 7ST       0.043600
     43 C43          9.1100    -0.0040     5.4930 cd         1 7ST      -0.108300
     44 C44         11.3290    -1.2350    11.2710 c          1 7ST       0.747100
     45 O45         10.8850    -2.3120    10.9120 o          1 7ST      -0.597500
     46 C46         11.0880    -0.5460    12.5000 cc         1 7ST      -0.251600
     47 H011         8.8960    -5.3600    16.8030 hc         1 7ST       0.043700
     48 H012         9.4250    -3.8340    17.4940 hc         1 7ST       0.043700
     49 H013         7.7120    -4.2090    17.4170 hc         1 7ST       0.043700
     50 H031        10.1560    -2.2590    15.9460 ha         1 7ST       0.132000
     51 H051         8.4770    -1.9580    12.0260 ha         1 7ST       0.159000
     52 H101         6.9040    -5.4590    15.6440 ho         1 7ST       0.434000
     53 H121        10.1940     0.3730    15.5350 h4         1 7ST       0.170000
     54 H141        11.9530     3.1050    13.8660 h1         1 7ST       0.086700
     55 H142        11.3600     2.5520    15.4220 h1         1 7ST       0.086700
     56 H171        13.4290     4.0130    15.4560 hn         1 7ST       0.331500
     57 H191        15.9960     1.3830    15.7090 ha         1 7ST       0.175000
     58 H221        17.2230     5.8400    17.2300 h4         1 7ST       0.030100
     59 H261        19.9500     3.0590    17.3490 h1         1 7ST       0.061950
     60 H262        19.5930     1.6320    18.3200 h1         1 7ST       0.061950
     61 H272        21.8000     1.3870    17.3260 h1         1 7ST       0.054950
     62 H271        21.1780     1.7650    15.7110 h1         1 7ST       0.054950
     63 H291        19.4170    -1.3550    15.5540 h1         1 7ST       0.054950
     64 H292        19.7700     0.1290    14.6530 h1         1 7ST       0.054950
     65 H302        17.5400     0.2460    15.4530 h1         1 7ST       0.061950
     66 H301        17.9790    -0.1710    17.1100 h1         1 7ST       0.061950
     67 H331        13.4170     1.1060    10.0140 h5         1 7ST       0.049800
     68 H352        12.7660    -2.1350     9.2270 h1         1 7ST       0.073700
     69 H351        13.3280    -0.5690     8.6840 h1         1 7ST       0.073700
     70 H391         7.6570    -2.0220     7.5960 h4         1 7ST       0.053100
     71 H423         7.0040    -0.4350     3.1610 h1         1 7ST       0.058033
     72 H422         6.3570     0.9070     4.1260 h1         1 7ST       0.058033
     73 H421         7.9630     1.0360     3.3930 h1         1 7ST       0.058033
     74 H431         9.8130     0.6290     4.9750 h4         1 7ST       0.175000
@<TRIPOS>BOND
     1     1     2 1   
     2     1    47 1   
     3     1    48 1   
     4     1    49 1   
     5     2     3 ar  
     6     2     9 ar  
     7     3     4 ar  
     8     3    50 1   
     9     4     5 ar  
    10     4    11 1   
    11     5     6 ar  
    12     5    51 1   
    13     6     7 1   
    14     6     9 ar  
    15     7     8 3   
    16     9    10 1   
    17    10    52 1   
    18    11    12 2   
    19    11    46 1   
    20    12    13 1   
    21    12    53 1   
    22    13    14 1   
    23    13    31 1   
    24    14    15 1   
    25    14    54 1   
    26    14    55 1   
    27    15    16 2   
    28    15    17 1   
    29    17    18 1   
    30    17    56 1   
    31    18    19 ar  
    32    18    23 ar  
    33    19    20 ar  
    34    19    57 1   
    35    20    21 ar  
    36    20    25 1   
    37    21    22 ar  
    38    22    23 ar  
    39    22    58 1   
    40    23    24 1   
    41    25    26 1   
    42    25    30 1   
    43    26    27 1   
    44    26    59 1   
    45    26    60 1   
    46    27    28 1   
    47    27    61 1   
    48    27    62 1   
    49    28    29 1   
    50    29    30 1   
    51    29    63 1   
    52    29    64 1   
    53    30    65 1   
    54    30    66 1   
    55    31    32 1   
    56    31    46 2   
    57    32    33 2   
    58    33    34 1   
    59    33    67 1   
    60    34    35 1   
    61    34    44 1   
    62    35    36 1   
    63    35    68 1   
    64    35    69 1   
    65    36    37 3   
    66    37    38 1   
    67    38    39 1   
    68    38    43 2   
    69    39    40 2   
    70    39    70 1   
    71    40    41 1   
    72    41    42 1   
    73    41    43 1   
    74    42    71 1   
    75    42    72 1   
    76    42    73 1   
    77    43    74 1   
    78    44    45 2   
    79    44    46 1   
@<TRIPOS>SUBSTRUCTURE
     1 7ST         1 TEMP              0 ****  ****    0 ROOT
