@<TRIPOS>MOLECULE
7ST
   74    79     1     0     0
SMALL
No Charge or Current Charge


@<TRIPOS>ATOM
      1 C01          9.0160    -4.8140    16.7570 c3         1 7ST      -0.048800
      2 C02          8.9680    -4.1210    15.3950 ca         1 7ST      -0.181300
      3 C03          9.7560    -2.9720    15.1820 ca         1 7ST      -0.040000
      4 C04          9.7620    -2.3070    13.9370 ca         1 7ST      -0.049000
      5 C05          8.9250    -2.7920    12.9140 ca         1 7ST      -0.001000
      6 C06          8.1300    -3.9360    13.1090 ca         1 7ST      -0.060000
      7 C07          7.2910    -4.3910    12.0340 cg         1 7ST       0.344000
      8 N08          6.6140    -4.7460    11.1500 n1         1 7ST      -0.461000
      9 C09          8.1550    -4.6070    14.3490 ca         1 7ST       0.183100
     10 O10          7.3850    -5.7210    14.5470 oh         1 7ST      -0.521100
     11 C11         10.5880    -1.1040    13.7470 cc         1 7ST      -0.022000
     12 C12         10.7180    -0.2240    14.7990 cd         1 7ST      -0.170000
     13 N13         11.3850     0.9020    14.3050 na         1 7ST       0.044000
     14 C14         11.7540     2.0930    15.0820 c3         1 7ST      -0.009400
     15 C15         13.2080     2.0450    15.5470 c          1 7ST       0.599100
     16 O16         13.4980     1.7940    16.7110 o          1 7ST      -0.542100
     17 N17         14.1380     2.3110    14.5520 ns         1 7ST      -0.147000
     18 C18         15.5590     2.3420    14.5550 ca         1 7ST       0.067000
     19 C19         16.3490     1.9360    15.6480 ca         1 7ST      -0.264000
     20 C20         17.7510     1.9980    15.5620 ca         1 7ST       0.650900
     21 N21         18.3920     2.4330    14.4670 nb         1 7ST      -0.761000
     22 C22         17.6430     2.8190    13.4120 ca         1 7ST       0.428900
     23 C23         16.2360     2.7900    13.4060 ca         1 7ST      -0.064000
     24 Cl24        15.3510     3.3220    11.9720 cl         1 7ST      -0.201000
     25 N25         18.6000     1.5980    16.6130 nh         1 7ST      -0.771300
     26 C26         19.8390     2.3880    16.9470 c6         1 7ST       0.178300
     27 C27         20.8870     1.5520    17.7380 c6         1 7ST       0.142100
     28 O28         20.2790     0.9090    18.8800 os         1 7ST      -0.442000
     29 C29         19.2180     0.0040    18.5010 c6         1 7ST       0.142100
     30 C30         18.0840     0.7620    17.7490 c6         1 7ST       0.178300
     31 C31         11.6360     0.7130    12.9480 cd         1 7ST       0.130400
     32 N32         12.2550     1.5780    12.0640 nd         1 7ST      -0.635100
     33 C33         12.3600     1.1090    10.8160 cc         1 7ST       0.521800
     34 N34         11.9500    -0.1400    10.3730 n          1 7ST      -0.338300
     35 C35         12.1600    -0.5200     8.9620 c3         1 7ST       0.196100
     36 C36         11.0030    -0.1980     8.1190 c1         1 7ST      -0.184100
     37 C37         10.0180     0.0650     7.4590 cg         1 7ST      -0.022000
     38 C38          8.8450     0.3620     6.7180 cc         1 7ST      -0.114000
     39 C39          7.5420    -0.0040     7.0920 cc         1 7ST       0.278900
     40 N40          6.6150     0.3860     6.2390 nd         1 7ST      -0.522800
     41 N41          7.3630     1.0370     5.2640 na         1 7ST       0.134800
     42 C42          6.7100     1.6420     4.0950 c3         1 7ST       0.072900
     43 C43          8.7360     1.0340     5.5400 cd         1 7ST      -0.141000
     44 C44         11.3380    -1.0490    11.2350 c          1 7ST       0.604600
     45 O45         11.0220    -2.1780    10.8890 o          1 7ST      -0.522000
     46 C46         11.1620    -0.5070    12.5870 cc         1 7ST      -0.251600
     47 H011         9.3680    -5.8490    16.6650 hc         1 7ST       0.043700
     48 H012         9.6970    -4.3040    17.4500 hc         1 7ST       0.043700
     49 H013         8.0270    -4.8290    17.2320 hc         1 7ST       0.043700
     50 H031        10.3930    -2.6110    15.9860 ha         1 7ST       0.114000
     51 H051         8.8500    -2.2540    11.9740 ha         1 7ST       0.141000
     52 H101         7.5350    -6.0380    15.4610 ho         1 7ST       0.473000
     53 H121        10.3620    -0.2860    15.8210 h4         1 7ST       0.152000
     54 H141        11.6110     2.9870    14.4650 h1         1 7ST       0.086700
     55 H142        11.1080     2.1690    15.9640 h1         1 7ST       0.086700
     56 H171        13.7300     2.4980    13.6430 hn         1 7ST       0.165000
     57 H191        15.8940     1.5810    16.5610 ha         1 7ST       0.157000
     58 H221        18.1890     3.1660    12.5350 h4         1 7ST       0.030100
     59 H261        20.3350     2.7620    16.0400 h1         1 7ST       0.061950
     60 H262        19.5660     3.2680    17.5470 h1         1 7ST       0.061950
     61 H272        21.7000     2.2070    18.0830 h1         1 7ST       0.054950
     62 H271        21.3240     0.7860    17.0820 h1         1 7ST       0.054950
     63 H291        18.8120    -0.4750    19.4030 h1         1 7ST       0.054950
     64 H292        19.6310    -0.7850    17.8550 h1         1 7ST       0.054950
     65 H302        17.3710     0.0110    17.3790 h1         1 7ST       0.061950
     66 H301        17.5480     1.3970    18.4700 h1         1 7ST       0.061950
     67 H331        12.8170     1.7260    10.0520 h5         1 7ST       0.049800
     68 H352        12.3740    -1.5950     8.8870 h1         1 7ST       0.073700
     69 H351        13.0400     0.0060     8.5700 h1         1 7ST       0.073700
     70 H391         7.2440    -0.5520     7.9760 h4         1 7ST       0.053100
     71 H423         6.1590     0.8710     3.5440 h1         1 7ST       0.058033
     72 H422         6.0140     2.4220     4.4260 h1         1 7ST       0.058033
     73 H421         7.4660     2.0870     3.4370 h1         1 7ST       0.058033
     74 H431         9.4800     1.4910     4.8990 h4         1 7ST       0.157000
@<TRIPOS>BOND
     1     1     2 1   
     2     1    47 1   
     3     1    48 1   
     4     1    49 1   
     5     2     3 ar  
     6     2     9 ar  
     7     3     4 ar  
     8     3    50 1   
     9     4     5 ar  
    10     4    11 1   
    11     5     6 ar  
    12     5    51 1   
    13     6     7 1   
    14     6     9 ar  
    15     7     8 3   
    16     9    10 1   
    17    10    52 1   
    18    11    12 2   
    19    11    46 1   
    20    12    13 1   
    21    12    53 1   
    22    13    14 1   
    23    13    31 1   
    24    14    15 1   
    25    14    54 1   
    26    14    55 1   
    27    15    16 2   
    28    15    17 1   
    29    17    18 1   
    30    17    56 1   
    31    18    19 ar  
    32    18    23 ar  
    33    19    20 ar  
    34    19    57 1   
    35    20    21 ar  
    36    20    25 1   
    37    21    22 ar  
    38    22    23 ar  
    39    22    58 1   
    40    23    24 1   
    41    25    26 1   
    42    25    30 1   
    43    26    27 1   
    44    26    59 1   
    45    26    60 1   
    46    27    28 1   
    47    27    61 1   
    48    27    62 1   
    49    28    29 1   
    50    29    30 1   
    51    29    63 1   
    52    29    64 1   
    53    30    65 1   
    54    30    66 1   
    55    31    32 1   
    56    31    46 2   
    57    32    33 2   
    58    33    34 1   
    59    33    67 1   
    60    34    35 1   
    61    34    44 1   
    62    35    36 1   
    63    35    68 1   
    64    35    69 1   
    65    36    37 3   
    66    37    38 1   
    67    38    39 1   
    68    38    43 2   
    69    39    40 2   
    70    39    70 1   
    71    40    41 1   
    72    41    42 1   
    73    41    43 1   
    74    42    71 1   
    75    42    72 1   
    76    42    73 1   
    77    43    74 1   
    78    44    45 2   
    79    44    46 1   
@<TRIPOS>SUBSTRUCTURE
     1 7ST         1 TEMP              0 ****  ****    0 ROOT
