@<TRIPOS>MOLECULE
7SU
   52    55     1     0     0
SMALL
abcg2


@<TRIPOS>ATOM
      1 C3          32.4190    -5.4550   -37.1110 ca         1 7SU       0.048200
      2 C2          31.4890    -4.3840   -36.7320 ce         1 7SU      -0.246200
      3 C1          30.3950    -4.5540   -35.9920 cf         1 7SU      -0.220200
      4 O           28.4630    -3.7710   -34.9330 o          1 7SU      -0.722000
      5 N1          31.5250   -10.8620   -42.0460 nc         1 7SU      -0.333300
      6 C           29.4720    -3.4250   -35.5820 c          1 7SU       0.697200
      7 N           32.3530    -8.8060   -38.3770 n          1 7SU      -0.094600
      8 C10         29.4410    -6.5520   -38.2690 c3         1 7SU      -0.036900
      9 C11         31.0120    -8.4810   -38.5520 cc         1 7SU      -0.178400
     10 C12         32.9520    -9.9780   -38.7930 c          1 7SU       0.673700
     11 C13         32.3250   -10.6230   -39.9600 cd         1 7SU      -0.265600
     12 C14         32.1890   -11.9490   -40.2440 cc         1 7SU       0.199300
     13 C15         32.4680   -13.2200   -39.4840 c3         1 7SU       0.185700
     14 C16         33.9450   -13.5660   -39.5510 c3         1 7SU      -0.119600
     15 C17         31.9380   -13.1520   -38.0650 c3         1 7SU      -0.119600
     16 C18         31.8780    -9.9850   -41.1580 cd         1 7SU       0.358500
     17 C19         31.7820    -8.5410   -41.4220 ca         1 7SU      -0.134500
     18 C20         32.9110    -7.7250   -41.3620 ca         1 7SU       0.160000
     19 C21         32.8350    -6.3480   -41.4700 ca         1 7SU      -0.095500
     20 C22         31.5920    -5.7730   -41.6680 ca         1 7SU       0.152000
     21 C23         30.4460    -6.5420   -41.7760 ca         1 7SU      -0.095500
     22 C24         30.5570    -7.9150   -41.6510 ca         1 7SU       0.160000
     23 C4          33.7800    -5.2500   -36.9010 ca         1 7SU      -0.152000
     24 C5          34.7220    -6.2540   -37.1130 ca         1 7SU      -0.092000
     25 C6          34.3440    -7.5100   -37.5540 ca         1 7SU      -0.146000
     26 C7          32.9940    -7.7070   -37.8100 ca         1 7SU      -0.076000
     27 C8          32.0230    -6.7010   -37.6280 ca         1 7SU      -0.095800
     28 C9          30.7640    -7.2250   -38.1230 cd         1 7SU      -0.057400
     29 F           31.7640   -14.2230   -40.1520 f          1 7SU      -0.255000
     30 O1          29.7890    -2.2690   -35.9250 o          1 7SU      -0.722000
     31 O2          31.7060   -12.0780   -41.4710 os         1 7SU      -0.041700
     32 O3          33.9580   -10.4060   -38.2750 o          1 7SU      -0.553100
     33 CL          34.4650    -8.4400   -41.1500 cl         1 7SU      -0.174000
     34 CL1         31.4660    -4.0590   -41.7770 cl         1 7SU      -0.163000
     35 CL2         29.1060    -8.8420   -41.7060 cl         1 7SU      -0.174000
     36 H2          31.7730    -3.3740   -37.0160 ha         1 7SU       0.196000
     37 H1          30.1340    -5.5500   -35.6450 ha         1 7SU       0.147000
     38 H6          28.9350    -6.3990   -37.3160 hc         1 7SU       0.052367
     39 H7          29.5490    -5.5710   -38.7310 hc         1 7SU       0.052367
     40 H8          28.7870    -7.1510   -38.9020 hc         1 7SU       0.052367
     41 H9          30.3180    -9.2040   -38.9500 h4         1 7SU       0.212000
     42 H11         34.1220   -14.5160   -39.0460 hc         1 7SU       0.062033
     43 H12         34.2830   -13.6510   -40.5840 hc         1 7SU       0.062033
     44 H10         34.5380   -12.8000   -39.0590 hc         1 7SU       0.062033
     45 H14         32.0790   -14.1190   -37.5810 hc         1 7SU       0.062033
     46 H15         32.4750   -12.4110   -37.4780 hc         1 7SU       0.062033
     47 H13         30.8770   -12.9030   -38.0480 hc         1 7SU       0.062033
     48 H16         33.7270    -5.7410   -41.4050 ha         1 7SU       0.152500
     49 H17         29.4810    -6.0810   -41.9340 ha         1 7SU       0.152500
     50 H3          34.1110    -4.2870   -36.5290 ha         1 7SU       0.116000
     51 H4          35.7670    -6.0540   -36.9160 ha         1 7SU       0.099000
     52 H5          35.0790    -8.2870   -37.6970 ha         1 7SU       0.123000
@<TRIPOS>BOND
     1     1     2 1   
     2     1    23 ar  
     3     1    27 ar  
     4     2     3 2   
     5     2    36 1   
     6     3     6 1   
     7     3    37 1   
     8     4     6 1   
     9     5    16 2   
    10     5    31 1   
    11     6    30 1   
    12     7     9 1   
    13     7    10 1   
    14     7    26 1   
    15     8    28 1   
    16     8    38 1   
    17     8    39 1   
    18     8    40 1   
    19     9    28 2   
    20     9    41 1   
    21    10    11 1   
    22    10    32 2   
    23    11    12 2   
    24    11    16 1   
    25    12    13 1   
    26    12    31 1   
    27    13    14 1   
    28    13    15 1   
    29    13    29 1   
    30    14    42 1   
    31    14    43 1   
    32    14    44 1   
    33    15    45 1   
    34    15    46 1   
    35    15    47 1   
    36    16    17 1   
    37    17    18 ar  
    38    17    22 ar  
    39    18    19 ar  
    40    18    33 1   
    41    19    20 ar  
    42    19    48 1   
    43    20    21 ar  
    44    20    34 1   
    45    21    22 ar  
    46    21    49 1   
    47    22    35 1   
    48    23    24 ar  
    49    23    50 1   
    50    24    25 ar  
    51    24    51 1   
    52    25    26 ar  
    53    25    52 1   
    54    26    27 ar  
    55    27    28 1   
@<TRIPOS>SUBSTRUCTURE
     1 7SU         1 TEMP              0 ****  ****    0 ROOT
