@<TRIPOS>MOLECULE
7SU
   52    55     1     0     0
SMALL
No Charge or Current Charge


@<TRIPOS>ATOM
      1 C3          32.4500    -5.4730   -36.9740 ca         1 7SU       0.048200
      2 C2          31.5360    -4.3330   -36.7130 ce         1 7SU      -0.246200
      3 C1          30.4290    -4.3170   -35.9110 cf         1 7SU      -0.220200
      4 O           28.6000    -3.2910   -34.9090 o          1 7SU      -0.722000
      5 N1          31.4150   -10.8830   -42.1280 nc         1 7SU      -0.333300
      6 C           29.5510    -3.1360   -35.6580 c          1 7SU       0.697200
      7 N           32.2520    -8.7960   -38.4180 n          1 7SU      -0.094600
      8 C10         29.4640    -6.3300   -38.2260 c3         1 7SU      -0.036900
      9 C11         30.9240    -8.3960   -38.5930 cc         1 7SU      -0.178400
     10 C12         32.7930   -10.0600   -38.7770 c          1 7SU       0.673700
     11 C13         32.2570   -10.6790   -40.0200 cd         1 7SU      -0.265600
     12 C14         32.2760   -12.0180   -40.3330 cc         1 7SU       0.199300
     13 C15         32.6630   -13.2970   -39.5860 c3         1 7SU       0.185700
     14 C16         34.1960   -13.4930   -39.5330 c3         1 7SU      -0.119600
     15 C17         32.0230   -13.3850   -38.1790 c3         1 7SU      -0.119600
     16 C18         31.7390   -10.0350   -41.1740 cd         1 7SU       0.358500
     17 C19         31.6460    -8.5890   -41.4340 ca         1 7SU      -0.134500
     18 C20         32.8100    -7.7870   -41.4360 ca         1 7SU       0.160000
     19 C21         32.7180    -6.3980   -41.6160 ca         1 7SU      -0.095500
     20 C22         31.4690    -5.7960   -41.8090 ca         1 7SU       0.152000
     21 C23         30.3090    -6.5810   -41.8400 ca         1 7SU      -0.095500
     22 C24         30.3930    -7.9700   -41.6590 ca         1 7SU       0.160000
     23 C4          33.8100    -5.3520   -36.6120 ca         1 7SU      -0.152000
     24 C5          34.7200    -6.4100   -36.8270 ca         1 7SU      -0.092000
     25 C6          34.2860    -7.6170   -37.4080 ca         1 7SU      -0.146000
     26 C7          32.9320    -7.7330   -37.7540 ca         1 7SU      -0.076000
     27 C8          32.0360    -6.6850   -37.5680 ca         1 7SU      -0.095800
     28 C9          30.7460    -7.1120   -38.1250 cd         1 7SU      -0.057400
     29 F           32.1830   -14.3710   -40.2630 f          1 7SU      -0.255000
     30 O1          29.8160    -2.0740   -36.2020 o          1 7SU      -0.722000
     31 O2          31.7430   -12.1690   -41.5920 os         1 7SU      -0.041700
     32 O3          33.6700   -10.5880   -38.1090 o          1 7SU      -0.553100
     33 Cl          34.4110    -8.4970   -41.2300 cl         1 7SU      -0.174000
     34 Cl1         31.3550    -4.0540   -42.0180 cl         1 7SU      -0.163000
     35 Cl2         28.8940    -8.8990   -41.6480 cl         1 7SU      -0.174000
     36 H2          31.8390    -3.4050   -37.2020 ha         1 7SU       0.196000
     37 H1          30.1450    -5.2320   -35.3970 ha         1 7SU       0.147000
     38 H6          28.9400    -6.3020   -37.2640 hc         1 7SU       0.052367
     39 H7          29.6510    -5.3000   -38.5510 hc         1 7SU       0.052367
     40 H8          28.7840    -6.7830   -38.9570 hc         1 7SU       0.052367
     41 H9          30.2250    -9.0970   -39.0350 h4         1 7SU       0.212000
     42 H11         34.4460   -14.4640   -39.0880 hc         1 7SU       0.062033
     43 H12         34.6210   -13.4670   -40.5440 hc         1 7SU       0.062033
     44 H10         34.6890   -12.7180   -38.9400 hc         1 7SU       0.062033
     45 H14         32.1780   -14.3820   -37.7490 hc         1 7SU       0.062033
     46 H15         32.4500   -12.6610   -37.4800 hc         1 7SU       0.062033
     47 H13         30.9420   -13.2090   -38.2370 hc         1 7SU       0.062033
     48 H16         33.6170    -5.7890   -41.6050 ha         1 7SU       0.152500
     49 H17         29.3410    -6.1120   -41.9920 ha         1 7SU       0.152500
     50 H3          34.1620    -4.4300   -36.1570 ha         1 7SU       0.116000
     51 H4          35.7640    -6.2910   -36.5460 ha         1 7SU       0.099000
     52 H5          34.9910    -8.4240   -37.5890 ha         1 7SU       0.123000
@<TRIPOS>BOND
     1     1     2 1   
     2     1    23 ar  
     3     1    27 ar  
     4     2     3 2   
     5     2    36 1   
     6     3     6 1   
     7     3    37 1   
     8     4     6 1   
     9     5    16 2   
    10     5    31 1   
    11     6    30 1   
    12     7     9 1   
    13     7    10 1   
    14     7    26 1   
    15     8    28 1   
    16     8    38 1   
    17     8    39 1   
    18     8    40 1   
    19     9    28 2   
    20     9    41 1   
    21    10    11 1   
    22    10    32 2   
    23    11    12 2   
    24    11    16 1   
    25    12    13 1   
    26    12    31 1   
    27    13    14 1   
    28    13    15 1   
    29    13    29 1   
    30    14    42 1   
    31    14    43 1   
    32    14    44 1   
    33    15    45 1   
    34    15    46 1   
    35    15    47 1   
    36    16    17 1   
    37    17    18 ar  
    38    17    22 ar  
    39    18    19 ar  
    40    18    33 1   
    41    19    20 ar  
    42    19    48 1   
    43    20    21 ar  
    44    20    34 1   
    45    21    22 ar  
    46    21    49 1   
    47    22    35 1   
    48    23    24 ar  
    49    23    50 1   
    50    24    25 ar  
    51    24    51 1   
    52    25    26 ar  
    53    25    52 1   
    54    26    27 ar  
    55    27    28 1   
@<TRIPOS>SUBSTRUCTURE
     1 7SU         1 TEMP              0 ****  ****    0 ROOT
