@<TRIPOS>MOLECULE
7SW
   88    91     1     0     0
SMALL
No Charge or Current Charge


@<TRIPOS>ATOM
      1 C10         11.2380     2.1710    27.9980 c6         1 7SW      -0.028000
      2 C13         13.0380     5.2320    24.8830 c5         1 7SW      -0.038000
      3 C15         14.5970     3.5800    24.0990 c5         1 7SW      -0.071400
      4 C17         13.2510     5.5680    23.3690 c5         1 7SW      -0.052700
      5 C20         13.2990     7.0730    22.9470 c3         1 7SW      -0.049700
      6 C21         12.0330     7.8540    23.3760 c3         1 7SW      -0.086100
      7 C22         13.5660     7.2390    21.3990 c3         1 7SW      -0.073400
      8 C24         14.2020     8.6560    19.3550 c          1 7SW       0.589100
      9 C26         13.1490     7.6610    16.3850 c3         1 7SW      -0.232400
     10 C02          8.7730     1.4780    27.4590 c6         1 7SW      -0.073400
     11 C03          9.1880     0.0050    27.1810 c6         1 7SW      -0.057700
     12 C04         10.6630    -0.0230    26.6960 c6         1 7SW      -0.070400
     13 C05         11.6410     0.6780    27.6960 c6         1 7SW      -0.048700
     14 C01          9.7390     2.1410    28.4710 c6         1 7SW      -0.068400
     15 C31          8.2470    -0.7090    26.1450 c3         1 7SW      -0.102400
     16 C06         13.1070     0.5720    27.2030 c6         1 7SW      -0.068400
     17 C07         13.3640     1.4380    25.9520 c6         1 7SW      -0.071400
     18 C08         12.9770     2.9340    26.1540 c6         1 7SW      -0.043700
     19 C09         11.4790     3.0750    26.7010 c6         1 7SW      -0.044700
     20 C14         13.2140     3.6970    24.8030 c5         1 7SW      -0.065700
     21 C12         11.0440     5.4280    25.6560 c6         1 7SW      -0.063400
     22 C11         11.0230     4.5710    26.9350 c6         1 7SW      -0.070400
     23 C16         14.5860     4.7570    23.0630 c5         1 7SW      -0.078400
     24 C32          6.9710    -1.4420    26.6680 c3         1 7SW       0.184000
     25 C33          6.0350    -0.5430    27.5080 c3         1 7SW      -0.100600
     26 O42          7.3850    -2.5310    27.4940 oh         1 7SW      -0.665000
     27 C34          6.1870    -2.0460    25.4790 c3         1 7SW      -0.100600
     28 C19         12.0700     2.7090    29.2180 c3         1 7SW      -0.083100
     29 C18         13.9980     5.9820    25.8580 c3         1 7SW      -0.076100
     30 C23         13.7740     8.6890    20.8270 c3         1 7SW      -0.163400
     31 N41         13.2250     9.0310    18.4600 ns         1 7SW      -0.497900
     32 C25         13.3840     9.0510    17.0040 c3         1 7SW       0.112000
     33 O43         15.3340     8.3530    19.0060 o          1 7SW      -0.617100
     34 C27         13.2900     7.7690    14.8640 c          1 7SW       0.724000
     35 O44         14.3990     7.6180    14.3760 o          1 7SW      -0.738000
     36 O45         12.2970     8.0560    14.2140 o          1 7SW      -0.738000
     37 H152        14.7210     2.6110    23.6030 hc         1 7SW       0.038200
     38 H151        15.4260     3.6800    24.8090 hc         1 7SW       0.038200
     39 H171        12.4260     5.1350    22.7870 hc         1 7SW       0.047700
     40 H201        14.1470     7.5420    23.4610 hc         1 7SW       0.042700
     41 H213        11.9300     7.8600    24.4650 hc         1 7SW       0.030033
     42 H211        12.0860     8.9030    23.0640 hc         1 7SW       0.030033
     43 H212        11.1310     7.4080    22.9410 hc         1 7SW       0.030033
     44 H222        12.7420     6.7670    20.8490 hc         1 7SW       0.054700
     45 H221        14.4630     6.6640    21.1420 hc         1 7SW       0.054700
     46 H262        12.1260     7.3760    16.6610 hc         1 7SW       0.023200
     47 H261        13.9220     7.0040    16.8020 hc         1 7SW       0.023200
     48 H022         8.7460     2.0540    26.5240 hc         1 7SW       0.040700
     49 H021         7.7580     1.5300    27.8680 hc         1 7SW       0.040700
     50 H031         9.1350    -0.5610    28.1210 hc         1 7SW       0.033700
     51 H041        10.9780    -1.0680    26.5650 hc         1 7SW       0.042200
     52 H042        10.7200     0.4330    25.6990 hc         1 7SW       0.042200
     53 H051        11.5820     0.1130    28.6380 hc         1 7SW       0.037700
     54 H011         9.3740     3.1410    28.7320 hc         1 7SW       0.036200
     55 H012         9.6730     1.5770    29.4120 hc         1 7SW       0.036200
     56 H312         8.8330    -1.4570    25.5940 hc         1 7SW       0.051700
     57 H311         7.9410     0.0180    25.3820 hc         1 7SW       0.051700
     58 H062        13.3490    -0.4760    26.9780 hc         1 7SW       0.036200
     59 H061        13.8010     0.8650    28.0020 hc         1 7SW       0.036200
     60 H072        12.8250     1.0220    25.0910 hc         1 7SW       0.039700
     61 H071        14.4300     1.3590    25.7010 hc         1 7SW       0.039700
     62 H081        13.6680     3.3490    26.8980 hc         1 7SW       0.047700
     63 H091        10.8320     2.6930    25.9030 hc         1 7SW       0.046700
     64 H141        12.4480     3.2750    24.1390 hc         1 7SW       0.045700
     65 H121        10.7960     6.4730    25.8800 hc         1 7SW       0.041200
     66 H122        10.3140     5.0510    24.9270 hc         1 7SW       0.041200
     67 H112        11.6650     5.0480    27.6870 hc         1 7SW       0.034700
     68 H111        10.0020     4.6190    27.3280 hc         1 7SW       0.034700
     69 H162        14.6780     4.3680    22.0290 hc         1 7SW       0.048700
     70 H161        15.4650     5.3940    23.2130 hc         1 7SW       0.048700
     71 H332         6.5050    -0.2520    28.4550 hc         1 7SW       0.040700
     72 H333         5.7680     0.3650    26.9550 hc         1 7SW       0.040700
     73 H331         5.1070    -1.0720    27.7560 hc         1 7SW       0.040700
     74 H421         8.0140    -2.1620    28.1480 ho         1 7SW       0.439000
     75 H342         5.3190    -2.6180    25.8280 hc         1 7SW       0.040700
     76 H343         5.8250    -1.2550    24.8110 hc         1 7SW       0.040700
     77 H341         6.8220    -2.7220    24.8920 hc         1 7SW       0.040700
     78 H191        11.9980     2.0300    30.0760 hc         1 7SW       0.031367
     79 H192        13.1350     2.8270    28.9960 hc         1 7SW       0.031367
     80 H193        11.7030     3.6830    29.5600 hc         1 7SW       0.031367
     81 H181        13.8980     5.6170    26.8850 hc         1 7SW       0.030033
     82 H182        15.0530     5.8900    25.5780 hc         1 7SW       0.030033
     83 H183        13.7630     7.0520    25.8830 hc         1 7SW       0.030033
     84 H232        14.5600     9.1770    21.4140 hc         1 7SW       0.046200
     85 H231        12.8340     9.2430    20.9260 hc         1 7SW       0.046200
     86 H411        12.3220     9.2760    18.8480 hn         1 7SW       0.289500
     87 H252        14.3940     9.4060    16.7540 h1         1 7SW       0.057700
     88 H251        12.6640     9.7660    16.5850 h1         1 7SW       0.057700
@<TRIPOS>BOND
     1     1    13 1   
     2     1    14 1   
     3     1    19 1   
     4     1    28 1   
     5     2     4 1   
     6     2    20 1   
     7     2    21 1   
     8     2    29 1   
     9     3    20 1   
    10     3    23 1   
    11     3    37 1   
    12     3    38 1   
    13     4     5 1   
    14     4    23 1   
    15     4    39 1   
    16     5     6 1   
    17     5     7 1   
    18     5    40 1   
    19     6    41 1   
    20     6    42 1   
    21     6    43 1   
    22     7    30 1   
    23     7    44 1   
    24     7    45 1   
    25     8    30 1   
    26     8    31 1   
    27     8    33 2   
    28     9    32 1   
    29     9    34 1   
    30     9    46 1   
    31     9    47 1   
    32    10    11 1   
    33    10    14 1   
    34    10    48 1   
    35    10    49 1   
    36    11    12 1   
    37    11    15 1   
    38    11    50 1   
    39    12    13 1   
    40    12    51 1   
    41    12    52 1   
    42    13    16 1   
    43    13    53 1   
    44    14    54 1   
    45    14    55 1   
    46    15    24 1   
    47    15    56 1   
    48    15    57 1   
    49    16    17 1   
    50    16    58 1   
    51    16    59 1   
    52    17    18 1   
    53    17    60 1   
    54    17    61 1   
    55    18    19 1   
    56    18    20 1   
    57    18    62 1   
    58    19    22 1   
    59    19    63 1   
    60    20    64 1   
    61    21    22 1   
    62    21    65 1   
    63    21    66 1   
    64    22    67 1   
    65    22    68 1   
    66    23    69 1   
    67    23    70 1   
    68    24    25 1   
    69    24    26 1   
    70    24    27 1   
    71    25    71 1   
    72    25    72 1   
    73    25    73 1   
    74    26    74 1   
    75    27    75 1   
    76    27    76 1   
    77    27    77 1   
    78    28    78 1   
    79    28    79 1   
    80    28    80 1   
    81    29    81 1   
    82    29    82 1   
    83    29    83 1   
    84    30    84 1   
    85    30    85 1   
    86    31    32 1   
    87    31    86 1   
    88    32    87 1   
    89    32    88 1   
    90    34    35 1   
    91    34    36 1   
@<TRIPOS>SUBSTRUCTURE
     1 7SW         1 TEMP              0 ****  ****    0 ROOT
