@<TRIPOS>MOLECULE
7SW
   88    91     1     0     0
SMALL
bcc


@<TRIPOS>ATOM
      1 C10         11.1600     2.3000    27.8160 c6         1 7SW      -0.028000
      2 C13         12.8410     5.1080    24.7810 c5         1 7SW      -0.038000
      3 C15         14.5390     3.5400    24.0880 c5         1 7SW      -0.071400
      4 C17         13.2030     5.4960    23.3260 c5         1 7SW      -0.052700
      5 C20         13.3730     6.9780    22.9620 c3         1 7SW      -0.049700
      6 C21         12.1570     7.8290    23.3190 c3         1 7SW      -0.086100
      7 C22         13.6840     7.0960    21.4630 c3         1 7SW      -0.073400
      8 C24         14.4330     8.4870    19.5300 c          1 7SW       0.656100
      9 C26         12.8360     7.9810    16.7100 c3         1 7SW      -0.232400
     10 C02          8.7600     1.5820    27.2060 c6         1 7SW      -0.073400
     11 C03          9.1590     0.1090    27.1620 c6         1 7SW      -0.057700
     12 C04         10.6290     0.0160    26.7630 c6         1 7SW      -0.070400
     13 C05         11.5620     0.8100    27.6840 c6         1 7SW      -0.048700
     14 C01          9.6600     2.3580    28.1570 c6         1 7SW      -0.068400
     15 C31          8.2810    -0.7290    26.2200 c3         1 7SW      -0.102400
     16 C06         13.0200     0.6490    27.2520 c6         1 7SW      -0.068400
     17 C07         13.3320     1.4040    25.9670 c6         1 7SW      -0.071400
     18 C08         12.9560     2.8800    26.0680 c6         1 7SW      -0.043700
     19 C09         11.4820     3.0420    26.4920 c6         1 7SW      -0.044700
     20 C14         13.1670     3.6030    24.7470 c5         1 7SW      -0.065700
     21 C12         11.3690     5.2330    25.1730 c6         1 7SW      -0.063400
     22 C11         11.0660     4.5160    26.4910 c6         1 7SW      -0.070400
     23 C16         14.4890     4.6720    23.0440 c5         1 7SW      -0.078400
     24 C32          7.1070    -1.4920    26.8580 c3         1 7SW       0.160800
     25 C33          6.1380    -0.5650    27.5890 c3         1 7SW      -0.100600
     26 O42          7.5950    -2.4860    27.7540 oh         1 7SW      -0.602800
     27 C34          6.3610    -2.2490    25.7660 c3         1 7SW      -0.100600
     28 C19         11.9050     2.9300    29.0000 c3         1 7SW      -0.083100
     29 C18         13.7310     5.8740    25.7680 c3         1 7SW      -0.076100
     30 C23         14.1410     8.4860    21.0160 c3         1 7SW      -0.163400
     31 N41         13.5510     9.1570    18.7730 ns         1 7SW      -0.564900
     32 C25         13.5700     9.1660    17.3230 c3         1 7SW       0.112000
     33 O43         15.3990     7.8930    19.0640 o          1 7SW      -0.617100
     34 C27         12.8080     7.9710    15.1680 c          1 7SW       0.934600
     35 O44         13.3690     8.9180    14.5810 o          1 7SW      -0.843300
     36 O45         12.2210     7.0060    14.6380 o          1 7SW      -0.843300
     37 H152        14.7420     2.5680    23.6360 hc         1 7SW       0.038200
     38 H151        15.3290     3.7140    24.8250 hc         1 7SW       0.038200
     39 H171        12.3970     5.1000    22.6900 hc         1 7SW       0.047700
     40 H201        14.2400     7.3660    23.5130 hc         1 7SW       0.042700
     41 H213        11.9900     7.8780    24.3930 hc         1 7SW       0.030033
     42 H211        12.2710     8.8580    22.9750 hc         1 7SW       0.030033
     43 H212        11.2510     7.4290    22.8580 hc         1 7SW       0.030033
     44 H222        12.7910     6.8040    20.8980 hc         1 7SW       0.054700
     45 H221        14.4660     6.3850    21.1900 hc         1 7SW       0.054700
     46 H262        11.8050     7.9580    17.0780 hc         1 7SW       0.023200
     47 H261        13.2900     7.0480    17.0580 hc         1 7SW       0.023200
     48 H022         8.8160     1.9950    26.1920 hc         1 7SW       0.040700
     49 H021         7.7190     1.6940    27.5180 hc         1 7SW       0.040700
     50 H031         9.0800    -0.2760    28.1890 hc         1 7SW       0.033700
     51 H041        10.9450    -1.0320    26.7720 hc         1 7SW       0.042200
     52 H042        10.7270     0.3500    25.7240 hc         1 7SW       0.042200
     53 H051        11.4570     0.3670    28.6840 hc         1 7SW       0.037700
     54 H011         9.3290     3.3970    28.2260 hc         1 7SW       0.036200
     55 H012         9.5280     1.9430    29.1630 hc         1 7SW       0.036200
     56 H312         8.9050    -1.4780    25.7200 hc         1 7SW       0.051700
     57 H311         7.8920    -0.0870    25.4230 hc         1 7SW       0.051700
     58 H062        13.2460    -0.4140    27.1270 hc         1 7SW       0.036200
     59 H061        13.6830     1.0050    28.0450 hc         1 7SW       0.036200
     60 H072        12.7970     0.9560    25.1220 hc         1 7SW       0.039700
     61 H071        14.3960     1.3040    25.7350 hc         1 7SW       0.039700
     62 H081        13.6050     3.3370    26.8260 hc         1 7SW       0.047700
     63 H091        10.8960     2.5610    25.6960 hc         1 7SW       0.046700
     64 H141        12.4530     3.1580    24.0360 hc         1 7SW       0.045700
     65 H121        11.0590     6.2760    25.2630 hc         1 7SW       0.041200
     66 H122        10.7560     4.7970    24.3760 hc         1 7SW       0.041200
     67 H112        11.5510     5.0510    27.3130 hc         1 7SW       0.034700
     68 H111         9.9930     4.5990    26.6780 hc         1 7SW       0.034700
     69 H162        14.4820     4.2720    22.0290 hc         1 7SW       0.048700
     70 H161        15.3760     5.3090    23.1140 hc         1 7SW       0.048700
     71 H332         6.6130    -0.0670    28.4370 hc         1 7SW       0.040700
     72 H333         5.7570     0.2120    26.9240 hc         1 7SW       0.040700
     73 H331         5.2860    -1.1290    27.9720 hc         1 7SW       0.040700
     74 H421         8.0320    -2.0430    28.4890 ho         1 7SW       0.400000
     75 H342         5.5390    -2.8340    26.1850 hc         1 7SW       0.040700
     76 H343         5.9390    -1.5540    25.0400 hc         1 7SW       0.040700
     77 H341         7.0260    -2.9300    25.2320 hc         1 7SW       0.040700
     78 H191        11.7550     2.3290    29.9010 hc         1 7SW       0.031367
     79 H192        12.9800     3.0140    28.8420 hc         1 7SW       0.031367
     80 H193        11.5300     3.9320    29.2160 hc         1 7SW       0.031367
     81 H181        13.6800     5.4680    26.7780 hc         1 7SW       0.030033
     82 H182        14.7810     5.8660    25.4720 hc         1 7SW       0.030033
     83 H183        13.4240     6.9200    25.8320 hc         1 7SW       0.030033
     84 H232        15.0580     8.7540    21.5470 hc         1 7SW       0.046200
     85 H231        13.3950     9.2430    21.2620 hc         1 7SW       0.046200
     86 H411        12.7480     9.5600    19.2270 hn         1 7SW       0.289500
     87 H252        14.6070     9.1880    16.9890 h1         1 7SW       0.057700
     88 H251        13.1170    10.1010    16.9960 h1         1 7SW       0.057700
@<TRIPOS>BOND
     1     1    13 1   
     2     1    14 1   
     3     1    19 1   
     4     1    28 1   
     5     2     4 1   
     6     2    20 1   
     7     2    21 1   
     8     2    29 1   
     9     3    20 1   
    10     3    23 1   
    11     3    37 1   
    12     3    38 1   
    13     4     5 1   
    14     4    23 1   
    15     4    39 1   
    16     5     6 1   
    17     5     7 1   
    18     5    40 1   
    19     6    41 1   
    20     6    42 1   
    21     6    43 1   
    22     7    30 1   
    23     7    44 1   
    24     7    45 1   
    25     8    30 1   
    26     8    31 1   
    27     8    33 2   
    28     9    32 1   
    29     9    34 1   
    30     9    46 1   
    31     9    47 1   
    32    10    11 1   
    33    10    14 1   
    34    10    48 1   
    35    10    49 1   
    36    11    12 1   
    37    11    15 1   
    38    11    50 1   
    39    12    13 1   
    40    12    51 1   
    41    12    52 1   
    42    13    16 1   
    43    13    53 1   
    44    14    54 1   
    45    14    55 1   
    46    15    24 1   
    47    15    56 1   
    48    15    57 1   
    49    16    17 1   
    50    16    58 1   
    51    16    59 1   
    52    17    18 1   
    53    17    60 1   
    54    17    61 1   
    55    18    19 1   
    56    18    20 1   
    57    18    62 1   
    58    19    22 1   
    59    19    63 1   
    60    20    64 1   
    61    21    22 1   
    62    21    65 1   
    63    21    66 1   
    64    22    67 1   
    65    22    68 1   
    66    23    69 1   
    67    23    70 1   
    68    24    25 1   
    69    24    26 1   
    70    24    27 1   
    71    25    71 1   
    72    25    72 1   
    73    25    73 1   
    74    26    74 1   
    75    27    75 1   
    76    27    76 1   
    77    27    77 1   
    78    28    78 1   
    79    28    79 1   
    80    28    80 1   
    81    29    81 1   
    82    29    82 1   
    83    29    83 1   
    84    30    84 1   
    85    30    85 1   
    86    31    32 1   
    87    31    86 1   
    88    32    87 1   
    89    32    88 1   
    90    34    35 1   
    91    34    36 1   
@<TRIPOS>SUBSTRUCTURE
     1 7SW         1 TEMP              0 ****  ****    0 ROOT
