@<TRIPOS>MOLECULE
7SX
   30    31     1     0     0
SMALL
No Charge or Current Charge


@<TRIPOS>ATOM
      1 C01          5.3950    -0.8690     0.3690 c3         1 7SX      -0.029800
      2 C02          3.9000    -0.6560     0.1840 ca         1 7SX      -0.074300
      3 C03          3.0440    -1.7470    -0.0050 ca         1 7SX      -0.185000
      4 C04          1.6520    -1.5810    -0.1830 ca         1 7SX      -0.000300
      5 C05          0.8770    -2.8660    -0.4790 c3         1 7SX      -0.043800
      6 C06          1.0760    -0.2660    -0.1320 ca         1 7SX      -0.074800
      7 C07         -0.3920     0.0410    -0.2280 cc         1 7SX       0.099600
      8 C08         -1.5050    -0.9810    -0.1030 c3         1 7SX      -0.361200
      9 C13         -0.7070     1.3840    -0.3910 cd         1 7SX      -0.316200
     10 C14          0.2290     2.5060    -0.3340 c          1 7SX       0.562200
     11 C17          1.9820     0.8180    -0.0010 ca         1 7SX       0.077600
     12 C18          3.3610     0.6320     0.1670 ca         1 7SX      -0.191000
     13 N16          1.5080     2.1270    -0.0940 ns         1 7SX      -0.386100
     14 O10         -3.9670    -1.7690     0.7010 o          1 7SX      -0.919500
     15 O11         -3.1100     0.3010     1.6790 o          1 7SX      -0.919500
     16 O12         -3.8580     0.2610    -0.6530 o          1 7SX      -0.919500
     17 O15         -0.0950     3.6750    -0.4650 o          1 7SX      -0.616000
     18 P09         -3.2040    -0.5170     0.4370 p5         1 7SX       1.284500
     19 H1           5.6320    -1.0700     1.4210 hc         1 7SX       0.022367
     20 H2           5.7530    -1.7190    -0.2240 hc         1 7SX       0.022367
     21 H3           5.9690     0.0120     0.0590 hc         1 7SX       0.022367
     22 H4           3.4740    -2.7460    -0.0250 ha         1 7SX       0.085000
     23 H5           0.3290    -3.2210     0.4000 hc         1 7SX       0.045033
     24 H6           0.1860    -2.7400    -1.3170 hc         1 7SX       0.045033
     25 H7           1.5480    -3.6810    -0.7720 hc         1 7SX       0.045033
     26 H8          -1.6440    -1.5030    -1.0550 hc         1 7SX       0.032200
     27 H9          -1.2360    -1.7170     0.6570 hc         1 7SX       0.032200
     28 H10         -1.7260     1.7200    -0.5180 ha         1 7SX       0.287000
     29 H11          4.0150     1.4930     0.2730 ha         1 7SX       0.088000
     30 H12          2.1910     2.8700    -0.0270 hn         1 7SX       0.286500
@<TRIPOS>BOND
     1     1     2 1   
     2     1    19 1   
     3     1    20 1   
     4     1    21 1   
     5     2     3 ar  
     6     2    12 ar  
     7     3     4 ar  
     8     3    22 1   
     9     4     5 1   
    10     4     6 ar  
    11     5    23 1   
    12     5    24 1   
    13     5    25 1   
    14     6     7 1   
    15     6    11 ar  
    16     7     8 1   
    17     7     9 2   
    18     8    18 1   
    19     8    26 1   
    20     8    27 1   
    21     9    10 1   
    22     9    28 1   
    23    10    13 1   
    24    10    17 2   
    25    11    12 ar  
    26    11    13 1   
    27    12    29 1   
    28    13    30 1   
    29    14    18 1   
    30    15    18 1   
    31    16    18 1   
@<TRIPOS>SUBSTRUCTURE
     1 7SX         1 TEMP              0 ****  ****    0 ROOT
