@<TRIPOS>MOLECULE
7SX
   30    31     1     0     0
SMALL
bcc


@<TRIPOS>ATOM
      1 C01          5.3380    -0.8630     0.3570 c3         1 7SX      -0.029800
      2 C02          3.8700    -0.6370     0.1590 ca         1 7SX      -0.074300
      3 C03          2.9970    -1.7190     0.0100 ca         1 7SX      -0.203000
      4 C04          1.6290    -1.5760    -0.1440 ca         1 7SX      -0.000300
      5 C05          0.8660    -2.8570    -0.3610 c3         1 7SX      -0.043800
      6 C06          1.0560    -0.2720    -0.1380 ca         1 7SX      -0.074800
      7 C07         -0.3640     0.0640    -0.2350 cc         1 7SX       0.099600
      8 C08         -1.4570    -0.9660    -0.1850 c3         1 7SX      -0.203400
      9 C13         -0.7230     1.3690    -0.3590 cd         1 7SX      -0.266200
     10 C14          0.2040     2.4680    -0.3340 c          1 7SX       0.704700
     11 C17          1.9600     0.8110    -0.0510 ca         1 7SX       0.077600
     12 C18          3.3370     0.6290     0.1100 ca         1 7SX      -0.209000
     13 N16          1.5030     2.1000    -0.1350 ns         1 7SX      -0.453100
     14 O10         -3.9040    -1.8180     0.4190 o          1 7SX      -0.919500
     15 O11         -2.9240     0.0700     1.8630 o          1 7SX      -0.919500
     16 O12         -3.7270     0.5560    -0.5320 o          1 7SX      -0.919500
     17 O15         -0.1050     3.6550    -0.4470 o          1 7SX      -0.691500
     18 P09         -3.1600    -0.4770     0.4540 p5         1 7SX       1.126700
     19 H1           5.5460    -1.1750     1.3820 hc         1 7SX       0.022367
     20 H2           5.7100    -1.6510    -0.2980 hc         1 7SX       0.022367
     21 H3           5.9140     0.0410     0.1650 hc         1 7SX       0.022367
     22 H4           3.4130    -2.7200    -0.0040 ha         1 7SX       0.103000
     23 H5           0.2950    -3.1570     0.5180 hc         1 7SX       0.045033
     24 H6           0.1700    -2.7920    -1.1940 hc         1 7SX       0.045033
     25 H7           1.5650    -3.6630    -0.5770 hc         1 7SX       0.045033
     26 H8          -1.5810    -1.3930    -1.1870 hc         1 7SX       0.032200
     27 H9          -1.1430    -1.7970     0.4420 hc         1 7SX       0.032200
     28 H10         -1.7720     1.6150    -0.4640 ha         1 7SX       0.237000
     29 H11          3.9800     1.5000     0.1840 ha         1 7SX       0.106000
     30 H12          2.1850     2.8440    -0.0770 hn         1 7SX       0.286500
@<TRIPOS>BOND
     1     1     2 1   
     2     1    19 1   
     3     1    20 1   
     4     1    21 1   
     5     2     3 ar  
     6     2    12 ar  
     7     3     4 ar  
     8     3    22 1   
     9     4     5 1   
    10     4     6 ar  
    11     5    23 1   
    12     5    24 1   
    13     5    25 1   
    14     6     7 1   
    15     6    11 ar  
    16     7     8 1   
    17     7     9 2   
    18     8    18 1   
    19     8    26 1   
    20     8    27 1   
    21     9    10 1   
    22     9    28 1   
    23    10    13 1   
    24    10    17 2   
    25    11    12 ar  
    26    11    13 1   
    27    12    29 1   
    28    13    30 1   
    29    14    18 1   
    30    15    18 1   
    31    16    18 1   
@<TRIPOS>SUBSTRUCTURE
     1 7SX         1 TEMP              0 ****  ****    0 ROOT
