@<TRIPOS>MOLECULE
7SZ
   78    83     1     0     0
SMALL
abcg2


@<TRIPOS>ATOM
      1 C01         -5.0320    -3.0820    35.8530 c3         1 7SZ       0.149100
      2 C03         -4.3480    -0.8000    35.4950 c6         1 7SZ       0.149800
      3 C04         -3.6260     0.3920    36.0950 c6         1 7SZ       0.213800
      4 C06         -2.1150    -1.1540    37.2350 c6         1 7SZ       0.213800
      5 C07         -2.8840    -2.3050    36.6060 c6         1 7SZ       0.149800
      6 C08         -1.3020     1.0590    36.4960 ca         1 7SZ       0.645900
      7 C09         -0.0660     0.8660    37.1490 ca         1 7SZ      -0.261000
      8 C10          0.8860     1.8770    37.1330 ca         1 7SZ       0.062000
      9 C12          2.6690     0.7130    38.4240 c          1 7SZ       0.590100
     10 C14          4.0820     0.9990    38.9430 c3         1 7SZ      -0.003400
     11 C16          5.4860    -1.0580    38.6680 cc         1 7SZ      -0.174000
     12 C17          5.8540    -2.1520    39.4210 cd         1 7SZ      -0.017000
     13 C18          6.6730    -3.2680    38.9300 ca         1 7SZ      -0.049000
     14 C19          6.5180    -3.7350    37.6130 ca         1 7SZ      -0.049000
     15 C20          7.2670    -4.7750    37.0850 ca         1 7SZ      -0.118300
     16 C21          7.0690    -5.2630    35.6790 c3         1 7SZ      -0.032800
     17 C22          8.2220    -5.3860    37.9070 ca         1 7SZ       0.179100
     18 C24          8.3990    -4.9320    39.2260 ca         1 7SZ      -0.115000
     19 C25          7.6290    -3.8770    39.7280 ca         1 7SZ       0.001000
     20 C26          9.3790    -5.5510    40.0480 cg         1 7SZ       0.326000
     21 C28          5.2690    -1.9470    40.7190 cd         1 7SZ      -0.250600
     22 C29          5.2030    -2.7190    41.9230 c          1 7SZ       0.604600
     23 C33          5.3860    -2.6130    45.1010 c1         1 7SZ      -0.183100
     24 C34          6.3360    -2.4490    45.8250 cg         1 7SZ      -0.025000
     25 C35          7.4420    -2.2710    46.6860 cc         1 7SZ      -0.115000
     26 C36          8.6740    -2.9700    46.6930 cc         1 7SZ       0.281900
     27 C40          7.5670    -1.3570    47.7290 cd         1 7SZ      -0.134000
     28 C41          3.8070    -0.8810    42.7550 cd         1 7SZ       0.521800
     29 C43          4.5720    -0.7320    40.6730 cc         1 7SZ       0.140400
     30 C44          0.5570     3.0730    36.4650 ca         1 7SZ      -0.057000
     31 C46         -0.6840     3.1870    35.8760 ca         1 7SZ       0.426900
     32 N02         -4.2810    -1.9540    36.3840 n3         1 7SZ      -0.714600
     33 N05         -2.2410     0.0570    36.4280 nh         1 7SZ      -0.769300
     34 N11          2.1360     1.7690    37.7400 ns         1 7SZ      -0.149000
     35 N15          4.7220    -0.1960    39.4310 na         1 7SZ       0.035000
     36 N27         10.1820    -6.0750    40.6900 n1         1 7SZ      -0.461000
     37 N31          4.4170    -2.0880    42.9220 n          1 7SZ      -0.340300
     38 N37          9.4740    -2.5250    47.6530 nd         1 7SZ      -0.522800
     39 N38          8.7800    -1.5460    48.2750 na         1 7SZ       0.122800
     40 N42          3.8490    -0.1710    41.6690 nc         1 7SZ      -0.633100
     41 N47         -1.5990     2.2230    35.8900 nb         1 7SZ      -0.756000
     42 O13          2.1060    -0.3480    38.6280 o          1 7SZ      -0.545100
     43 O23          8.9270    -6.4120    37.3770 oh         1 7SZ      -0.530100
     44 CL45         1.6900     4.4030    36.3850 cl         1 7SZ      -0.211000
     45 H013        -4.9690    -3.9230    36.5450 h1         1 7SZ       0.034033
     46 H011        -6.0800    -2.8020    35.7340 h1         1 7SZ       0.034033
     47 H012        -4.6490    -3.4150    34.8730 h1         1 7SZ       0.034033
     48 H031        -5.3930    -0.5320    35.3340 h1         1 7SZ       0.043200
     49 H032        -3.9090    -1.0400    34.5080 h1         1 7SZ       0.043200
     50 H041        -3.6270     1.2180    35.3900 h1         1 7SZ       0.059450
     51 H042        -4.1520     0.7170    37.0040 h1         1 7SZ       0.059450
     52 H061        -1.0720    -1.4480    37.3020 h1         1 7SZ       0.059450
     53 H062        -2.4830    -0.9680    38.2530 h1         1 7SZ       0.059450
     54 H071        -2.8350    -3.1680    37.2730 h1         1 7SZ       0.043200
     55 H072        -2.3980    -2.5810    35.6540 h1         1 7SZ       0.043200
     56 H091         0.1690    -0.0430    37.6670 ha         1 7SZ       0.159000
     57 H141         4.6920     1.4280    38.1480 h1         1 7SZ       0.089200
     58 H142         4.0160     1.7330    39.7490 h1         1 7SZ       0.089200
     59 H161         5.7220    -0.8120    37.6470 h4         1 7SZ       0.153000
     60 H191         5.7680    -3.2780    36.9820 ha         1 7SZ       0.116000
     61 H213         8.0010    -5.2090    35.1120 hc         1 7SZ       0.045700
     62 H211         6.7550    -6.3100    35.6660 hc         1 7SZ       0.045700
     63 H212         6.3160    -4.6640    35.1690 hc         1 7SZ       0.045700
     64 H251         7.7820    -3.5540    40.7460 ha         1 7SZ       0.143000
     65 H321         3.3390    -2.4260    44.6640 h1         1 7SZ       0.078200
     66 H322         4.1110    -3.8540    43.9830 h1         1 7SZ       0.078200
     67 H361         8.9860    -3.7690    46.0370 h4         1 7SZ       0.051100
     68 H391        10.3030    -1.2880    49.6380 h1         1 7SZ       0.060033
     69 H392         9.5680     0.2270    49.0680 h1         1 7SZ       0.060033
     70 H393         8.7000    -0.8010    50.2280 h1         1 7SZ       0.060033
     71 H401         6.8800    -0.6130    48.0960 h4         1 7SZ       0.157000
     72 H411         3.2490    -0.5190    43.6090 h5         1 7SZ       0.051800
     73 H461        -0.9530     4.1120    35.3770 h4         1 7SZ       0.031100
     74 H111         2.7330     2.5790    37.6340 hn         1 7SZ       0.165000
     75 H231         9.5530    -6.7830    38.0150 ho         1 7SZ       0.477000
     76 O30          5.7170    -3.8110    42.1550 o          1 7SZ      -0.533000
     77 C32          4.2530    -2.7970    44.2030 c3         1 7SZ       0.195100
     78 C39          9.3710    -0.8010    49.3720 c3         1 7SZ       0.071900
@<TRIPOS>BOND
     1     1    32 1   
     2     1    45 1   
     3     1    46 1   
     4     1    47 1   
     5     2     3 1   
     6     2    32 1   
     7     2    48 1   
     8     2    49 1   
     9     3    33 1   
    10     3    50 1   
    11     3    51 1   
    12     4     5 1   
    13     4    33 1   
    14     4    52 1   
    15     4    53 1   
    16     5    32 1   
    17     5    54 1   
    18     5    55 1   
    19     6     7 ar  
    20     6    33 1   
    21     6    41 ar  
    22     7     8 ar  
    23     7    56 1   
    24     8    30 ar  
    25     8    34 1   
    26     9    10 1   
    27     9    34 1   
    28     9    42 2   
    29    10    35 1   
    30    10    57 1   
    31    10    58 1   
    32    11    12 2   
    33    11    35 1   
    34    11    59 1   
    35    12    13 1   
    36    12    21 1   
    37    13    14 ar  
    38    13    19 ar  
    39    14    15 ar  
    40    14    60 1   
    41    15    16 1   
    42    15    17 ar  
    43    16    61 1   
    44    16    62 1   
    45    16    63 1   
    46    17    18 ar  
    47    17    43 1   
    48    18    19 ar  
    49    18    20 1   
    50    19    64 1   
    51    20    36 3   
    52    21    22 1   
    53    21    29 2   
    54    22    37 1   
    55    22    76 2   
    56    23    24 3   
    57    23    77 1   
    58    24    25 1   
    59    25    26 1   
    60    25    27 2   
    61    26    38 2   
    62    26    67 1   
    63    27    39 1   
    64    27    71 1   
    65    28    37 1   
    66    28    40 2   
    67    28    72 1   
    68    29    35 1   
    69    29    40 1   
    70    30    31 ar  
    71    30    44 1   
    72    31    41 ar  
    73    31    73 1   
    74    34    74 1   
    75    37    77 1   
    76    38    39 1   
    77    39    78 1   
    78    43    75 1   
    79    65    77 1   
    80    66    77 1   
    81    68    78 1   
    82    69    78 1   
    83    70    78 1   
@<TRIPOS>SUBSTRUCTURE
     1 7SZ         1 TEMP              0 ****  ****    0 ROOT
