@<TRIPOS>MOLECULE
7SZ
   78    83     1     0     0
SMALL
No Charge or Current Charge


@<TRIPOS>ATOM
      1 C01         -5.2140    -1.5250    33.6200 c3         1 7SZ       0.149100
      2 C03         -4.6350    -1.3160    36.0170 c6         1 7SZ       0.149800
      3 C04         -3.5000    -1.3640    37.0890 c6         1 7SZ       0.213800
      4 C06         -1.8960    -0.5350    35.3540 c6         1 7SZ       0.213800
      5 C07         -3.0720    -0.5070    34.3260 c6         1 7SZ       0.149800
      6 C08         -1.4950     0.0040    37.7930 ca         1 7SZ       0.645900
      7 C09         -0.0990     0.0550    37.6380 ca         1 7SZ      -0.261000
      8 C10          0.7080     0.5190    38.6950 ca         1 7SZ       0.062000
      9 C12          3.0230     0.4180    37.5840 c          1 7SZ       0.590100
     10 C14          4.4910     0.5760    37.9770 c3         1 7SZ      -0.003400
     11 C16          5.6380    -1.6850    38.1940 cc         1 7SZ      -0.174000
     12 C17          5.9730    -2.5140    39.2400 cd         1 7SZ      -0.017000
     13 C18          6.6610    -3.8100    39.0500 ca         1 7SZ      -0.049000
     14 C19          6.5230    -4.5070    37.8320 ca         1 7SZ      -0.049000
     15 C20          7.1800    -5.7340    37.6160 ca         1 7SZ      -0.118300
     16 C21          6.9820    -6.4690    36.2920 c3         1 7SZ      -0.032800
     17 C22          8.0100    -6.2700    38.6240 ca         1 7SZ       0.179100
     18 C24          8.1860    -5.5630    39.8330 ca         1 7SZ      -0.115000
     19 C25          7.5190    -4.3390    40.0330 ca         1 7SZ       0.001000
     20 C26          9.0470    -6.0540    40.8720 cg         1 7SZ       0.326000
     21 C28          5.3920    -1.9620    40.4270 cd         1 7SZ      -0.250600
     22 C29          5.2590    -2.4820    41.8050 c          1 7SZ       0.604600
     23 C33          5.5790    -1.4920    44.9290 c1         1 7SZ      -0.183100
     24 C34          6.5190    -1.0810    45.5780 cg         1 7SZ      -0.025000
     25 C35          7.6240    -0.5740    46.3100 cc         1 7SZ      -0.115000
     26 C36          8.9490    -0.5410    45.8480 cc         1 7SZ       0.281900
     27 C40          7.6350    -0.0350    47.5600 cd         1 7SZ      -0.134000
     28 C41          4.1490    -0.3670    42.2450 cd         1 7SZ       0.521800
     29 C43          4.8390    -0.7640    40.1040 cc         1 7SZ       0.140400
     30 C44          0.0550     0.9070    39.8790 ca         1 7SZ      -0.057000
     31 C46         -1.3480     0.8190    39.9430 ca         1 7SZ       0.426900
     32 N02         -4.1300    -1.5180    34.6260 n3         1 7SZ      -0.714600
     33 N05         -2.3610    -0.4360    36.7760 nh         1 7SZ      -0.769300
     34 N11          2.1270     0.5990    38.6290 ns         1 7SZ      -0.149000
     35 N15          4.9880    -0.5800    38.7370 na         1 7SZ       0.035000
     36 N27          9.7510    -6.4680    41.7050 n1         1 7SZ      -0.461000
     37 N31          4.6240    -1.5930    42.6800 n          1 7SZ      -0.340300
     38 N37          9.8000    -0.0200    46.7120 nd         1 7SZ      -0.522800
     39 N38          8.9770     0.2960    47.7860 na         1 7SZ       0.122800
     40 N42          4.2080     0.0710    40.9860 nc         1 7SZ      -0.633100
     41 N47         -2.1150     0.3780    38.9220 nb         1 7SZ      -0.756000
     42 O13          2.6940     0.1600    36.4320 o          1 7SZ      -0.545100
     43 O23          8.6460    -7.4660    38.4020 oh         1 7SZ      -0.530100
     44 Cl45         0.9650     1.5020    41.2730 cl         1 7SZ      -0.211000
     45 H013        -4.8110    -1.7210    32.6170 h1         1 7SZ       0.034033
     46 H011        -5.9480    -2.3090    33.8480 h1         1 7SZ       0.034033
     47 H012        -5.7370    -0.5590    33.5980 h1         1 7SZ       0.034033
     48 H031        -5.3820    -2.0840    36.2660 h1         1 7SZ       0.043200
     49 H032        -5.1420    -0.3420    36.0940 h1         1 7SZ       0.043200
     50 H041        -3.9550    -1.1300    38.0620 h1         1 7SZ       0.059450
     51 H042        -3.1250    -2.3960    37.1520 h1         1 7SZ       0.059450
     52 H061        -1.2220     0.3000    35.1120 h1         1 7SZ       0.059450
     53 H062        -1.3290    -1.4670    35.2130 h1         1 7SZ       0.059450
     54 H071        -2.6580    -0.6750    33.3210 h1         1 7SZ       0.043200
     55 H072        -3.5080     0.5040    34.3260 h1         1 7SZ       0.043200
     56 H091         0.3400    -0.2860    36.7110 ha         1 7SZ       0.159000
     57 H141         5.0840     0.6950    37.0630 h1         1 7SZ       0.089200
     58 H142         4.5960     1.4820    38.5830 h1         1 7SZ       0.089200
     59 H161         5.8430    -1.7680    37.1340 h4         1 7SZ       0.153000
     60 H191         5.8780    -4.1080    37.0540 ha         1 7SZ       0.116000
     61 H213         7.9360    -6.5960    35.7660 hc         1 7SZ       0.045700
     62 H211         6.5540    -7.4660    36.4550 hc         1 7SZ       0.045700
     63 H212         6.3060    -5.9290    35.6190 hc         1 7SZ       0.045700
     64 H251         7.7130    -3.7740    40.9410 ha         1 7SZ       0.143000
     65 H321         3.5300    -1.5300    44.4840 h1         1 7SZ       0.078200
     66 H322         4.3710    -3.0530    44.2040 h1         1 7SZ       0.078200
     67 H361         9.3190    -0.8860    44.8920 h4         1 7SZ       0.051100
     68 H391        10.3350     0.2890    49.3970 h1         1 7SZ       0.060033
     69 H392         9.9240     1.9090    48.7550 h1         1 7SZ       0.060033
     70 H393         8.7410     1.0150    49.7560 h1         1 7SZ       0.060033
     71 H401         6.8420     0.1350    48.2780 h4         1 7SZ       0.157000
     72 H411         3.6780     0.2590    42.9930 h5         1 7SZ       0.051800
     73 H461        -1.8770     1.1150    40.8480 h4         1 7SZ       0.031100
     74 H111         2.5630     0.8080    39.5190 hn         1 7SZ       0.165000
     75 H231         9.1790    -7.6970    39.1920 ho         1 7SZ       0.477000
     76 O30          5.6340    -3.5890    42.1620 o          1 7SZ      -0.533000
     77 C32          4.4630    -1.9640    44.1000 c3         1 7SZ       0.195100
     78 C39          9.5280     0.9160    48.9990 c3         1 7SZ       0.071900
@<TRIPOS>BOND
     1     1    32 1   
     2     1    45 1   
     3     1    46 1   
     4     1    47 1   
     5     2     3 1   
     6     2    32 1   
     7     2    48 1   
     8     2    49 1   
     9     3    33 1   
    10     3    50 1   
    11     3    51 1   
    12     4     5 1   
    13     4    33 1   
    14     4    52 1   
    15     4    53 1   
    16     5    32 1   
    17     5    54 1   
    18     5    55 1   
    19     6     7 ar  
    20     6    33 1   
    21     6    41 ar  
    22     7     8 ar  
    23     7    56 1   
    24     8    30 ar  
    25     8    34 1   
    26     9    10 1   
    27     9    34 1   
    28     9    42 2   
    29    10    35 1   
    30    10    57 1   
    31    10    58 1   
    32    11    12 2   
    33    11    35 1   
    34    11    59 1   
    35    12    13 1   
    36    12    21 1   
    37    13    14 ar  
    38    13    19 ar  
    39    14    15 ar  
    40    14    60 1   
    41    15    16 1   
    42    15    17 ar  
    43    16    61 1   
    44    16    62 1   
    45    16    63 1   
    46    17    18 ar  
    47    17    43 1   
    48    18    19 ar  
    49    18    20 1   
    50    19    64 1   
    51    20    36 3   
    52    21    22 1   
    53    21    29 2   
    54    22    37 1   
    55    22    76 2   
    56    23    24 3   
    57    23    77 1   
    58    24    25 1   
    59    25    26 1   
    60    25    27 2   
    61    26    38 2   
    62    26    67 1   
    63    27    39 1   
    64    27    71 1   
    65    28    37 1   
    66    28    40 2   
    67    28    72 1   
    68    29    35 1   
    69    29    40 1   
    70    30    31 ar  
    71    30    44 1   
    72    31    41 ar  
    73    31    73 1   
    74    34    74 1   
    75    37    77 1   
    76    38    39 1   
    77    39    78 1   
    78    43    75 1   
    79    65    77 1   
    80    66    77 1   
    81    68    78 1   
    82    69    78 1   
    83    70    78 1   
@<TRIPOS>SUBSTRUCTURE
     1 7SZ         1 TEMP              0 ****  ****    0 ROOT
