@<TRIPOS>MOLECULE
7T0
   21    22     1     0     0
SMALL
bcc


@<TRIPOS>ATOM
      1 C11         29.1900    -6.5000    -5.8220 ca         1 7T0      -0.184300
      2 C01         27.2550    -5.0800    -5.4390 ca         1 7T0      -0.006200
      3 C05         23.8130    -4.5500    -5.9650 cc         1 7T0       0.259200
      4 C06         24.7920    -5.4070    -5.5520 cd         1 7T0      -0.216600
      5 C07         27.9380    -4.3990    -4.4480 ca         1 7T0      -0.060000
      6 C08         29.2380    -4.7430    -4.1510 ca         1 7T0      -0.129000
      7 C09         29.8600    -5.7870    -4.8240 ca         1 7T0       0.084400
      8 C12         29.7840    -7.6560    -6.6010 c3         1 7T0       0.737200
      9 C16         27.8810    -6.1080    -6.1330 ca         1 7T0       0.070400
     10 F13         29.9060    -7.3430    -7.8950 f          1 7T0      -0.221967
     11 F14         29.0010    -8.7360    -6.5180 f          1 7T0      -0.221967
     12 F15         30.9830    -8.0340    -6.1830 f          1 7T0      -0.221967
     13 N02         25.9290    -4.7060    -5.7380 na         1 7T0       0.147300
     14 N03         25.6690    -3.4950    -6.2290 nd         1 7T0      -0.181800
     15 N04         24.3990    -3.3990    -6.3680 nc         1 7T0      -0.348000
     16 CL10        31.4840    -6.1050    -4.3460 cl         1 7T0      -0.050400
     17 CL17        27.0050    -6.8550    -7.4100 cl         1 7T0      -0.038400
     18 H2          24.7750    -6.4060    -5.1520 h4         1 7T0       0.193000
     19 H3          27.4500    -3.5980    -3.9090 ha         1 7T0       0.168000
     20 H4          29.7750    -4.2060    -3.3830 ha         1 7T0       0.166000
     21 H1          22.7460    -4.6970    -5.9870 h4         1 7T0       0.055100
@<TRIPOS>BOND
     1     1     7 ar  
     2     1     8 1   
     3     1     9 ar  
     4     2     5 ar  
     5     2     9 ar  
     6     2    13 1   
     7     3     4 2   
     8     3    15 1   
     9     3    21 1   
    10     4    13 1   
    11     4    18 1   
    12     5     6 ar  
    13     5    19 1   
    14     6     7 ar  
    15     6    20 1   
    16     7    16 1   
    17     8    10 1   
    18     8    11 1   
    19     8    12 1   
    20     9    17 1   
    21    13    14 1   
    22    14    15 2   
@<TRIPOS>SUBSTRUCTURE
     1 7T0         1 TEMP              0 ****  ****    0 ROOT
