@<TRIPOS>MOLECULE
7T0
   21    22     1     0     0
SMALL
No Charge or Current Charge


@<TRIPOS>ATOM
      1 C11         29.1920    -6.5120    -5.8610 ca         1 7T0      -0.184300
      2 C01         27.2250    -5.0480    -5.5430 ca         1 7T0      -0.006200
      3 C05         23.8370    -4.5340    -5.8290 cc         1 7T0       0.193900
      4 C06         24.8780    -5.2710    -5.3480 cd         1 7T0      -0.184000
      5 C07         27.8580    -4.4170    -4.4640 ca         1 7T0      -0.042000
      6 C08         29.1400    -4.8200    -4.0770 ca         1 7T0      -0.111000
      7 C09         29.8100    -5.8500    -4.7560 ca         1 7T0       0.176000
      8 C12         29.8600    -7.6560    -6.6640 c3         1 7T0       0.373300
      9 C16         27.8850    -6.0860    -6.2400 ca         1 7T0       0.162000
     10 F13         29.9970    -7.3270    -7.9690 f          1 7T0      -0.100667
     11 F14         29.1210    -8.7880    -6.6170 f          1 7T0      -0.100667
     12 F15         31.0930    -8.0150    -6.2530 f          1 7T0      -0.100667
     13 N02         25.9490    -4.6320    -5.9130 na         1 7T0       0.198000
     14 N03         25.6010    -3.5350    -6.6420 nd         1 7T0      -0.181800
     15 N04         24.2890    -3.4970    -6.6100 nc         1 7T0      -0.348000
     16 Cl10        31.4200    -6.2280    -4.1340 cl         1 7T0      -0.142000
     17 Cl17        27.0310    -6.8390    -7.6040 cl         1 7T0      -0.130000
     18 H2          24.9310    -6.1390    -4.7040 h4         1 7T0       0.175000
     19 H3          27.3550    -3.6150    -3.9250 ha         1 7T0       0.150000
     20 H4          29.6250    -4.3260    -3.2380 ha         1 7T0       0.148000
     21 H1          22.7770    -4.6730    -5.6610 h4         1 7T0       0.055100
@<TRIPOS>BOND
     1     1     7 ar  
     2     1     8 1   
     3     1     9 ar  
     4     2     5 ar  
     5     2     9 ar  
     6     2    13 1   
     7     3     4 2   
     8     3    15 1   
     9     3    21 1   
    10     4    13 1   
    11     4    18 1   
    12     5     6 ar  
    13     5    19 1   
    14     6     7 ar  
    15     6    20 1   
    16     7    16 1   
    17     8    10 1   
    18     8    11 1   
    19     8    12 1   
    20     9    17 1   
    21    13    14 1   
    22    14    15 2   
@<TRIPOS>SUBSTRUCTURE
     1 7T0         1 TEMP              0 ****  ****    0 ROOT
