@<TRIPOS>MOLECULE
7T1
   47    49     1     0     0
SMALL
No Charge or Current Charge


@<TRIPOS>ATOM
      1 C4          -5.4090    -0.3310     1.2350 ca         1 7T1      -0.095500
      2 C5          -4.4180     0.1160     0.3300 ca         1 7T1      -0.084500
      3 C6          -8.6640     0.1430    -0.7720 c3         1 7T1       0.356300
      4 C7          -2.9910     0.1050     0.7140 cc         1 7T1       0.454900
      5 C8          -1.1930    -0.2100     1.9900 cd         1 7T1       0.300300
      6 C10         -0.5010    -0.6270     3.2580 c3         1 7T1      -0.120400
      7 C13          4.3460    -1.7630    -0.3060 ca         1 7T1      -0.038000
      8 C15          5.3510     0.8420    -0.0540 ca         1 7T1      -0.233000
      9 C17          5.7270    -1.5340    -0.4560 ca         1 7T1      -0.139300
     10 C20          9.7510     1.2560    -0.5770 c          1 7T1       0.729000
     11 O2          10.3120     0.1910    -0.8090 o          1 7T1      -0.709000
     12 O1          10.3500     2.3210    -0.4990 o          1 7T1      -0.709000
     13 C19          8.2080     1.2820    -0.3680 c3         1 7T1      -0.002400
     14 C16          6.2350    -0.2240    -0.3290 ca         1 7T1       0.201100
     15 C18          6.6610    -2.7040    -0.7530 c3         1 7T1      -0.028800
     16 C14          3.9750     0.6060     0.0940 ca         1 7T1      -0.030000
     17 C12          3.4650    -0.7020    -0.0300 ca         1 7T1      -0.200000
     18 S1           1.7170    -1.0840     0.1460 ss         1 7T1      -0.231000
     19 C9          -0.5740     0.2780     0.8610 cc         1 7T1      -0.202300
     20 S           -1.7340     0.6370    -0.3820 ss         1 7T1       0.002600
     21 N           -2.5720    -0.3060     1.9070 nd         1 7T1      -0.641000
     22 C           -4.8380     0.5760    -0.9410 ca         1 7T1      -0.095500
     23 C3          -6.7690    -0.3250     0.8820 ca         1 7T1      -0.065000
     24 C2          -7.1790     0.1250    -0.3890 ca         1 7T1      -0.197300
     25 C1          -6.1980     0.5820    -1.2930 ca         1 7T1      -0.065000
     26 F           -9.3680    -0.8290    -0.1480 f          1 7T1      -0.115667
     27 F1          -9.2400     1.3210    -0.4450 f          1 7T1      -0.115667
     28 F2          -8.8550    -0.0360    -2.1000 f          1 7T1      -0.115667
     29 H3          -5.1300    -0.6870     2.2240 ha         1 7T1       0.134500
     30 H5          -1.2080    -1.0350     3.9890 hc         1 7T1       0.053033
     31 H6           0.2520    -1.3970     3.0560 hc         1 7T1       0.053033
     32 H4           0.0060     0.2270     3.7230 hc         1 7T1       0.053033
     33 H9           3.9500    -2.7720    -0.4020 ha         1 7T1       0.109000
     34 H11          5.7140     1.8600     0.0470 ha         1 7T1       0.127000
     35 H16          8.0170     1.7050     0.6260 h1         1 7T1       0.020700
     36 H15          7.7850     1.9630    -1.1180 h1         1 7T1       0.020700
     37 H12          7.1860    -2.5550    -1.7040 hc         1 7T1       0.042700
     38 H14          7.4170    -2.8120     0.0340 hc         1 7T1       0.042700
     39 H13          6.1180    -3.6540    -0.8220 hc         1 7T1       0.042700
     40 H10          3.3230     1.4500     0.3020 ha         1 7T1       0.105000
     41 H7           1.3610     0.8770     1.5540 h1         1 7T1       0.074700
     42 H8           1.0410     1.2400    -0.1610 h1         1 7T1       0.074700
     43 H           -4.1190     0.9360    -1.6720 ha         1 7T1       0.134500
     44 H2          -7.5030    -0.6700     1.6080 ha         1 7T1       0.128500
     45 H1          -6.4860     0.9490    -2.2770 ha         1 7T1       0.128500
     46 C11          0.8960     0.4980     0.6350 c3         1 7T1       0.126900
     47 O            7.5960    -0.0250    -0.4810 os         1 7T1      -0.285100
@<TRIPOS>BOND
     1     1     2 ar  
     2     1    23 ar  
     3     1    29 1   
     4     2     4 1   
     5     2    22 ar  
     6     3    24 1   
     7     3    26 1   
     8     3    27 1   
     9     3    28 1   
    10     4    20 1   
    11     4    21 2   
    12     5     6 1   
    13     5    19 2   
    14     5    21 1   
    15     6    30 1   
    16     6    31 1   
    17     6    32 1   
    18     7     9 ar  
    19     7    17 ar  
    20     7    33 1   
    21     8    14 ar  
    22     8    16 ar  
    23     8    34 1   
    24     9    14 ar  
    25     9    15 1   
    26    10    11 1   
    27    10    12 1   
    28    10    13 1   
    29    13    35 1   
    30    13    36 1   
    31    13    47 1   
    32    14    47 1   
    33    15    37 1   
    34    15    38 1   
    35    15    39 1   
    36    16    17 ar  
    37    16    40 1   
    38    17    18 1   
    39    18    46 1   
    40    19    20 1   
    41    19    46 1   
    42    22    25 ar  
    43    22    43 1   
    44    23    24 ar  
    45    23    44 1   
    46    24    25 ar  
    47    25    45 1   
    48    41    46 1   
    49    42    46 1   
@<TRIPOS>SUBSTRUCTURE
     1 7T1         1 TEMP              0 ****  ****    0 ROOT
