@<TRIPOS>MOLECULE
7T1
   47    49     1     0     0
SMALL
bcc


@<TRIPOS>ATOM
      1 C4          -5.2470     0.0790     1.2360 ca         1 7T1      -0.113500
      2 C5          -4.2970     0.0100     0.2130 ca         1 7T1      -0.084500
      3 C6          -8.4600    -0.6000    -0.5980 c3         1 7T1       0.720200
      4 C7          -2.8870     0.2300     0.5310 cc         1 7T1       0.454900
      5 C8          -1.1080     0.7340     1.7420 cd         1 7T1       0.365600
      6 C10         -0.4450     1.1430     3.0140 c3         1 7T1      -0.120400
      7 C13          3.9900    -1.2740    -0.7360 ca         1 7T1      -0.056000
      8 C15          5.5650     0.0320     1.1270 ca         1 7T1      -0.251000
      9 C17          5.3320    -1.0790    -1.0180 ca         1 7T1      -0.139300
     10 C20          9.6830     0.5790    -0.1210 c          1 7T1       0.939600
     11 O2           9.9290    -0.0240    -1.1750 o          1 7T1      -0.814300
     12 O1          10.4520     1.2840     0.5620 o          1 7T1      -0.814300
     13 C19          8.2670     0.4690     0.4690 c3         1 7T1      -0.025600
     14 C16          6.1280    -0.4110    -0.0690 ca         1 7T1       0.201100
     15 C18          5.9330    -1.5620    -2.3040 c3         1 7T1      -0.028800
     16 C14          4.2190    -0.1870     1.3880 ca         1 7T1      -0.048000
     17 C12          3.4180    -0.8340     0.4590 ca         1 7T1      -0.073100
     18 S1           1.7030    -1.1150     0.7920 ss         1 7T1      -0.310000
     19 C9          -0.4710     0.4770     0.5600 cc         1 7T1      -0.122700
     20 S           -1.6250     0.0200    -0.6290 ss         1 7T1      -0.142300
     21 N           -2.4620     0.5960     1.7010 nd         1 7T1      -0.641000
     22 C           -4.7240    -0.2620    -1.0850 ca         1 7T1      -0.113500
     23 C3          -6.5850    -0.1230     0.9630 ca         1 7T1      -0.083000
     24 C2          -7.0000    -0.3970    -0.3380 ca         1 7T1      -0.197300
     25 C1          -6.0660    -0.4650    -1.3610 ca         1 7T1      -0.083000
     26 F           -8.9670    -1.5730     0.1730 f          1 7T1      -0.236967
     27 F1          -9.1670     0.5070    -0.3260 f          1 7T1      -0.236967
     28 F2          -8.7190    -0.9280    -1.8650 f          1 7T1      -0.236967
     29 H3          -4.9320     0.2880     2.2480 ha         1 7T1       0.152500
     30 H5          -0.8470     0.5750     3.8520 hc         1 7T1       0.053033
     31 H6           0.6290     0.9760     2.9800 hc         1 7T1       0.053033
     32 H4          -0.6170     2.2000     3.2220 hc         1 7T1       0.053033
     33 H9           3.3710    -1.7830    -1.4650 ha         1 7T1       0.127000
     34 H11          6.1590     0.5470     1.8690 ha         1 7T1       0.145000
     35 H16          8.3260    -0.0290     1.4460 h1         1 7T1       0.020700
     36 H15          7.8720     1.4760     0.6480 h1         1 7T1       0.020700
     37 H12          6.3690    -0.7440    -2.8790 hc         1 7T1       0.042700
     38 H14          6.7310    -2.2860    -2.1290 hc         1 7T1       0.042700
     39 H13          5.1770    -2.0420    -2.9240 hc         1 7T1       0.042700
     40 H10          3.7970     0.1560     2.3240 ha         1 7T1       0.123000
     41 H7           1.4720     1.2910     0.8420 h1         1 7T1       0.074700
     42 H8           1.1950     0.6580    -0.7790 h1         1 7T1       0.074700
     43 H           -4.0170    -0.3130    -1.9030 ha         1 7T1       0.152500
     44 H2          -7.2990    -0.0680     1.7740 ha         1 7T1       0.146500
     45 H1          -6.3630    -0.6720    -2.3800 ha         1 7T1       0.146500
     46 C11          0.9870     0.4950     0.2780 c3         1 7T1       0.079000
     47 O            7.4130    -0.2480    -0.4030 os         1 7T1      -0.261900
@<TRIPOS>BOND
     1     1     2 ar  
     2     1    23 ar  
     3     1    29 1   
     4     2     4 1   
     5     2    22 ar  
     6     3    24 1   
     7     3    26 1   
     8     3    27 1   
     9     3    28 1   
    10     4    20 1   
    11     4    21 2   
    12     5     6 1   
    13     5    19 2   
    14     5    21 1   
    15     6    30 1   
    16     6    31 1   
    17     6    32 1   
    18     7     9 ar  
    19     7    17 ar  
    20     7    33 1   
    21     8    14 ar  
    22     8    16 ar  
    23     8    34 1   
    24     9    14 ar  
    25     9    15 1   
    26    10    11 1   
    27    10    12 1   
    28    10    13 1   
    29    13    35 1   
    30    13    36 1   
    31    13    47 1   
    32    14    47 1   
    33    15    37 1   
    34    15    38 1   
    35    15    39 1   
    36    16    17 ar  
    37    16    40 1   
    38    17    18 1   
    39    18    46 1   
    40    19    20 1   
    41    19    46 1   
    42    22    25 ar  
    43    22    43 1   
    44    23    24 ar  
    45    23    44 1   
    46    24    25 ar  
    47    25    45 1   
    48    41    46 1   
    49    42    46 1   
@<TRIPOS>SUBSTRUCTURE
     1 7T1         1 TEMP              0 ****  ****    0 ROOT
