@<TRIPOS>MOLECULE
7T2
   25    25     1     0     0
SMALL
bcc


@<TRIPOS>ATOM
      1 N           35.3540   -20.1660    -0.3950 n7         1 7T2      -0.801200
      2 C           36.3870   -19.1990     1.7170 c          1 7T2       0.907600
      3 O           36.8080   -19.4440     2.8660 o          1 7T2      -0.835300
      4 CA          35.4950   -20.2870     1.0460 c3         1 7T2       0.026500
      5 CB          35.8980   -21.7080     1.4530 c3         1 7T2      -0.023100
      6 CG          34.9310   -22.7530     0.9760 ca         1 7T2      -0.016300
      7 CD1         35.2730   -23.6770    -0.0040 ca         1 7T2      -0.123000
      8 CD2         33.6490   -22.8290     1.5220 ca         1 7T2      -0.123000
      9 CE1         34.3770   -24.6470    -0.4360 ca         1 7T2      -0.128000
     10 CE2         32.7370   -23.7850     1.1060 ca         1 7T2      -0.128000
     11 CZ          33.1130   -24.6920     0.1260 ca         1 7T2       0.007400
     12 CM          36.5740   -20.3930    -1.1470 c3         1 7T2       0.157100
     13 CL          31.9830   -25.9020    -0.3980 cl         1 7T2      -0.159400
     14 H1          35.0520   -19.2190    -0.5820 hn         1 7T2       0.357800
     15 O1          36.5550   -18.1450     1.0730 o          1 7T2      -0.835300
     16 H4          34.4890   -20.1190     1.4600 h1         1 7T2       0.036700
     17 H5          35.9560   -21.7380     2.5410 hc         1 7T2       0.056700
     18 H6          36.9030   -21.9400     1.0900 hc         1 7T2       0.056700
     19 H7          36.2640   -23.6510    -0.4430 ha         1 7T2       0.134000
     20 H8          33.3530   -22.1280     2.2940 ha         1 7T2       0.134000
     21 H9          34.6670   -25.3580    -1.1980 ha         1 7T2       0.129500
     22 H10         31.7500   -23.8270     1.5460 ha         1 7T2       0.129500
     23 H11         36.4100   -20.0980    -2.1840 h1         1 7T2       0.012367
     24 H12         37.4500   -19.8430    -0.7830 h1         1 7T2       0.012367
     25 H13         36.8330   -21.4530    -1.1610 h1         1 7T2       0.012367
@<TRIPOS>BOND
     1     1     4 1   
     2     1    12 1   
     3     1    14 1   
     4     2     3 1   
     5     2     4 1   
     6     2    15 1   
     7     4     5 1   
     8     4    16 1   
     9     5     6 1   
    10     5    17 1   
    11     5    18 1   
    12     6     7 ar  
    13     6     8 ar  
    14     7     9 ar  
    15     7    19 1   
    16     8    10 ar  
    17     8    20 1   
    18     9    11 ar  
    19     9    21 1   
    20    10    11 ar  
    21    10    22 1   
    22    11    13 1   
    23    12    23 1   
    24    12    24 1   
    25    12    25 1   
@<TRIPOS>SUBSTRUCTURE
     1 7T2         1 TEMP              0 ****  ****    0 ROOT
