@<TRIPOS>MOLECULE
7T2
   25    25     1     0     0
SMALL
No Charge or Current Charge


@<TRIPOS>ATOM
      1 N           35.4450   -20.1730    -0.4810 n7         1 7T2      -0.856400
      2 C           36.4070   -19.1740     1.7220 c          1 7T2       0.697000
      3 O           37.4940   -19.4900     2.1910 o          1 7T2      -0.730000
      4 CA          35.5030   -20.2750     1.0260 c3         1 7T2       0.026500
      5 CB          35.8530   -21.7200     1.4910 c3         1 7T2      -0.023100
      6 CG          34.8640   -22.7780     1.0070 ca         1 7T2      -0.016300
      7 CD1         35.2480   -23.7280     0.0390 ca         1 7T2      -0.105000
      8 CD2         33.5590   -22.8250     1.5390 ca         1 7T2      -0.105000
      9 CE1         34.3370   -24.7070    -0.3970 ca         1 7T2      -0.110000
     10 CE2         32.6480   -23.8040     1.1040 ca         1 7T2      -0.110000
     11 CZ          33.0380   -24.7430     0.1350 ca         1 7T2       0.099000
     12 CM          36.7220   -20.3400    -1.2030 c3         1 7T2       0.157100
     13 Cl          31.9000   -25.9680    -0.4090 cl         1 7T2      -0.251000
     14 H1          35.0860   -19.2370    -0.7120 hn         1 7T2       0.413000
     15 O1          35.9720   -18.0300     1.7750 o          1 7T2      -0.730000
     16 H4          34.4910   -20.0780     1.4070 h1         1 7T2       0.036700
     17 H5          35.8710   -21.7340     2.5880 hc         1 7T2       0.056700
     18 H6          36.8720   -21.9750     1.1780 hc         1 7T2       0.056700
     19 H7          36.2520   -23.7050    -0.3790 ha         1 7T2       0.116000
     20 H8          33.2510   -22.1020     2.2910 ha         1 7T2       0.116000
     21 H9          34.6380   -25.4350    -1.1460 ha         1 7T2       0.111500
     22 H10         31.6430   -23.8340     1.5160 ha         1 7T2       0.111500
     23 H11         36.5650   -20.2210    -2.2830 h1         1 7T2       0.012367
     24 H12         37.4560   -19.5890    -0.8810 h1         1 7T2       0.012367
     25 H13         37.1480   -21.3370    -1.0330 h1         1 7T2       0.012367
@<TRIPOS>BOND
     1     1     4 1   
     2     1    12 1   
     3     1    14 1   
     4     2     3 1   
     5     2     4 1   
     6     2    15 1   
     7     4     5 1   
     8     4    16 1   
     9     5     6 1   
    10     5    17 1   
    11     5    18 1   
    12     6     7 ar  
    13     6     8 ar  
    14     7     9 ar  
    15     7    19 1   
    16     8    10 ar  
    17     8    20 1   
    18     9    11 ar  
    19     9    21 1   
    20    10    11 ar  
    21    10    22 1   
    22    11    13 1   
    23    12    23 1   
    24    12    24 1   
    25    12    25 1   
@<TRIPOS>SUBSTRUCTURE
     1 7T2         1 TEMP              0 ****  ****    0 ROOT
