@<TRIPOS>MOLECULE
7T6
   25    25     1     0     0
SMALL
bcc


@<TRIPOS>ATOM
      1 C1          15.8260    15.2640    32.5950 c2         1 7T6      -0.220000
      2 C2          16.8660    15.2960    31.7630 ce         1 7T6      -0.167800
      3 C3          16.8070    16.0460    30.4870 ce         1 7T6       0.397600
      4 C4          15.7800    17.1740    30.3800 c          1 7T6       0.865300
      5 C5          18.1340    14.5630    32.0490 c6         1 7T6       0.070900
      6 C6          18.6050    14.8950    29.3950 c6         1 7T6       0.289600
      7 C7          19.9660    15.5990    29.3940 c3         1 7T6       0.000100
      8 C8          19.9670    16.7270    28.3210 c          1 7T6       0.930600
      9 N1          17.5630    15.8710    29.4800 n2         1 7T6      -0.533900
     10 O1          16.1000    18.2220    30.9650 o          1 7T6      -0.820800
     11 O2          14.7550    16.9260    29.7240 o          1 7T6      -0.820800
     12 O4          19.9780    16.3410    27.1370 o          1 7T6      -0.824800
     13 O5          19.9530    17.8960    28.7440 o          1 7T6      -0.824800
     14 O9          20.9270    14.6100    29.1300 os         1 7T6      -0.405600
     15 S           18.5360    13.5270    30.6150 ss         1 7T6      -0.520200
     16 H1          15.8660    14.7010    33.5200 ha         1 7T6       0.100000
     17 H2          14.8970    15.7770    32.3840 ha         1 7T6       0.100000
     18 H3          18.0370    13.9100    32.9160 h1         1 7T6       0.051700
     19 H4          18.9580    15.2540    32.2400 h1         1 7T6       0.051700
     20 H5          18.5030    14.3920    28.4280 h2         1 7T6       0.102700
     21 H6          20.1400    16.0480    30.3860 h1         1 7T6       0.021700
     22 H7          22.9110    14.2270    29.0540 h1         1 7T6       0.002033
     23 H8          22.4770    15.8280    28.4410 h1         1 7T6       0.002033
     24 H9          22.4720    15.5160    30.1870 h1         1 7T6       0.002033
     25 CO9         22.2460    15.0780    29.2070 c3         1 7T6       0.152700
@<TRIPOS>BOND
     1     1     2 2   
     2     1    16 1   
     3     1    17 1   
     4     2     3 1   
     5     2     5 1   
     6     3     4 1   
     7     3     9 2   
     8     4    10 1   
     9     4    11 1   
    10     5    15 1   
    11     5    18 1   
    12     5    19 1   
    13     6     7 1   
    14     6     9 1   
    15     6    15 1   
    16     6    20 1   
    17     7     8 1   
    18     7    14 1   
    19     7    21 1   
    20     8    12 1   
    21     8    13 1   
    22    14    25 1   
    23    22    25 1   
    24    23    25 1   
    25    24    25 1   
@<TRIPOS>SUBSTRUCTURE
     1 7T6         1 TEMP              0 ****  ****    0 ROOT
