@<TRIPOS>MOLECULE
7T6
   25    25     1     0     0
SMALL
No Charge or Current Charge


@<TRIPOS>ATOM
      1 C1          15.9720    15.2720    32.7210 c2         1 7T6      -0.320000
      2 C2          16.9510    15.2780    31.7820 ce         1 7T6      -0.167800
      3 C3          16.8650    16.0250    30.4860 ce         1 7T6       0.397600
      4 C4          16.1900    17.4230    30.4010 c          1 7T6       0.654700
      5 C5          18.2270    14.4730    32.0260 c6         1 7T6       0.118800
      6 C6          18.4480    14.6110    29.2930 c6         1 7T6       0.337500
      7 C7          19.7360    15.5040    29.2760 c3         1 7T6       0.023300
      8 C8          19.6740    16.5090    28.0810 c          1 7T6       0.720000
      9 N1          17.2320    15.4310    29.3740 n2         1 7T6      -0.533900
     10 O1          15.8980    18.0230    31.4330 o          1 7T6      -0.715500
     11 O2          15.9640    17.9290    29.3010 o          1 7T6      -0.715500
     12 O4          19.9770    16.1180    26.9590 o          1 7T6      -0.719500
     13 O5          19.4700    17.6900    28.3340 o          1 7T6      -0.719500
     14 O9          20.9130    14.6370    29.2130 os         1 7T6      -0.452000
     15 S           18.5060    13.3280    30.6210 ss         1 7T6      -0.616000
     16 H1          16.0700    14.7110    33.6510 ha         1 7T6       0.150000
     17 H2          15.0370    15.8170    32.5860 ha         1 7T6       0.150000
     18 H3          18.1500    13.8780    32.9470 h1         1 7T6       0.051700
     19 H4          19.0920    15.1440    32.1240 h1         1 7T6       0.051700
     20 H5          18.4290    14.0590    28.3400 h2         1 7T6       0.102700
     21 H6          19.7590    16.0890    30.2040 h1         1 7T6       0.021700
     22 H7          22.9950    14.5790    29.3690 h1         1 7T6       0.002033
     23 H8          22.3440    16.0570    28.6270 h1         1 7T6       0.002033
     24 H9          22.1990    15.8020    30.3850 h1         1 7T6       0.002033
     25 CO9         22.1720    15.3040    29.4070 c3         1 7T6       0.175900
@<TRIPOS>BOND
     1     1     2 2   
     2     1    16 1   
     3     1    17 1   
     4     2     3 1   
     5     2     5 1   
     6     3     4 1   
     7     3     9 2   
     8     4    10 1   
     9     4    11 1   
    10     5    15 1   
    11     5    18 1   
    12     5    19 1   
    13     6     7 1   
    14     6     9 1   
    15     6    15 1   
    16     6    20 1   
    17     7     8 1   
    18     7    14 1   
    19     7    21 1   
    20     8    12 1   
    21     8    13 1   
    22    14    25 1   
    23    22    25 1   
    24    23    25 1   
    25    24    25 1   
@<TRIPOS>SUBSTRUCTURE
     1 7T6         1 TEMP              0 ****  ****    0 ROOT
