@<TRIPOS>MOLECULE
7T7
   50    53     1     0     0
SMALL
abcg2


@<TRIPOS>ATOM
      1 N1          -4.4340    -0.6250     0.7760 ns         1 7T7      -0.508900
      2 C4          -2.2370    -0.8610    -0.1720 ca         1 7T7      -0.189600
      3 C5          -1.6930     0.2560     0.4560 ca         1 7T7      -0.040000
      4 C6          -0.3270     0.4930     0.4770 ca         1 7T7      -0.170000
      5 C7          -3.7010    -1.1330    -0.2300 c          1 7T7       0.621700
      6 C8          -5.8770    -0.7050     0.8540 c3         1 7T7       0.114000
      7 C10         -8.0900     0.5060     0.4860 c5         1 7T7      -0.111400
      8 C13          4.6890    -0.5800    -0.4860 c5         1 7T7       0.160300
      9 C15          7.2370    -0.9330    -0.8330 ca         1 7T7      -0.087500
     10 C17          8.6660     0.7830     0.0880 ca         1 7T7      -0.104000
     11 C20          4.9710     1.5210     0.7310 c5         1 7T7       0.160300
     12 C16          8.5050    -0.4160    -0.6010 ca         1 7T7      -0.104000
     13 C3          -1.3630    -1.7410    -0.8070 ca         1 7T7      -0.040000
     14 C18          7.5610     1.4820     0.5570 ca         1 7T7      -0.087500
     15 C2          -0.0010    -1.5290    -0.7800 ca         1 7T7      -0.170000
     16 C19          6.2970     0.9620     0.3250 ca         1 7T7      -0.102300
     17 C14          6.1390    -0.2310    -0.3620 ca         1 7T7      -0.102300
     18 C1           0.5450    -0.4100    -0.1360 ca         1 7T7       0.024000
     19 C            2.7120     0.7000     0.3750 c          1 7T7       0.672100
     20 C11         -8.5350     1.5620    -0.5190 c5         1 7T7       0.156600
     21 C12         -6.4370     0.7860    -1.1580 c5         1 7T7       0.157600
     22 C9          -6.5720     0.5460     0.3410 c5         1 7T7      -0.124700
     23 N2           4.0420     0.5310     0.2020 n          1 7T7      -0.437800
     24 N            1.9280    -0.2930    -0.1640 ns         1 7T7      -0.159000
     25 O1          -4.1850    -1.7950    -1.1410 o          1 7T7      -0.607100
     26 O            2.2580     1.6690     0.9690 o          1 7T7      -0.624100
     27 O2          -7.5220     1.6250    -1.5160 os         1 7T7      -0.463000
     28 H1          -3.9650    -0.1600     1.5350 hn         1 7T7       0.314500
     29 H2          -2.3310     0.9920     0.9290 ha         1 7T7       0.122500
     30 H3           0.0430     1.3780     0.9650 ha         1 7T7       0.132500
     31 H4          -6.2150    -1.5800     0.2970 h1         1 7T7       0.058200
     32 H5          -6.1440    -0.8690     1.8990 h1         1 7T7       0.058200
     33 H6          -8.4310     0.7240     1.4980 hc         1 7T7       0.053700
     34 H7          -8.4710    -0.4820     0.2090 hc         1 7T7       0.053700
     35 H9           4.4650    -1.5420    -0.0110 h1         1 7T7       0.060700
     36 H10          7.1120    -1.8640    -1.3720 ha         1 7T7       0.119000
     37 H11          9.6600     1.1740     0.2590 ha         1 7T7       0.117000
     38 H12          4.8810     1.6160     1.8170 h1         1 7T7       0.060700
     39 H13          4.7920     2.5120     0.3030 h1         1 7T7       0.060700
     40 H14          9.3760    -0.9500    -0.9590 ha         1 7T7       0.117000
     41 H15         -1.7500    -2.6130    -1.3180 ha         1 7T7       0.122500
     42 H16          7.6890     2.4140     1.0940 ha         1 7T7       0.119000
     43 H17          0.6560    -2.2400    -1.2680 ha         1 7T7       0.132500
     44 H18         -9.4970     1.3210    -0.9790 h1         1 7T7       0.042700
     45 H19         -8.6340     2.5410    -0.0380 h1         1 7T7       0.042700
     46 H20         -5.5000     1.2770    -1.4330 h1         1 7T7       0.056200
     47 H21         -6.4880    -0.1660    -1.7040 h1         1 7T7       0.056200
     48 H22         -6.1820     1.4150     0.8820 hc         1 7T7       0.057700
     49 H23          2.3930    -1.0540    -0.6340 hn         1 7T7       0.150000
     50 H8           4.3800    -0.6470    -1.5350 h1         1 7T7       0.060700
@<TRIPOS>BOND
     1     1     5 1   
     2     1     6 1   
     3     1    28 1   
     4     2     3 ar  
     5     2     5 1   
     6     2    13 ar  
     7     3     4 ar  
     8     3    29 1   
     9     4    18 ar  
    10     4    30 1   
    11     5    25 2   
    12     6    22 1   
    13     6    31 1   
    14     6    32 1   
    15     7    20 1   
    16     7    22 1   
    17     7    33 1   
    18     7    34 1   
    19     8    17 1   
    20     8    23 1   
    21     8    35 1   
    22     8    50 1   
    23     9    12 ar  
    24     9    17 ar  
    25     9    36 1   
    26    10    12 ar  
    27    10    14 ar  
    28    10    37 1   
    29    11    16 1   
    30    11    23 1   
    31    11    38 1   
    32    11    39 1   
    33    12    40 1   
    34    13    15 ar  
    35    13    41 1   
    36    14    16 ar  
    37    14    42 1   
    38    15    18 ar  
    39    15    43 1   
    40    16    17 ar  
    41    18    24 1   
    42    19    23 1   
    43    19    24 1   
    44    19    26 2   
    45    20    27 1   
    46    20    44 1   
    47    20    45 1   
    48    21    22 1   
    49    21    27 1   
    50    21    46 1   
    51    21    47 1   
    52    22    48 1   
    53    24    49 1   
@<TRIPOS>SUBSTRUCTURE
     1 7T7         1 TEMP              0 ****  ****    0 ROOT
