@<TRIPOS>MOLECULE
7T7
   50    53     1     0     0
SMALL
No Charge or Current Charge


@<TRIPOS>ATOM
      1 N1          -4.5250    -0.2810     0.9780 ns         1 7T7      -0.508900
      2 C4          -2.2560    -0.7580     0.1440 ca         1 7T7      -0.189600
      3 C5          -1.6730     0.2010     1.0070 ca         1 7T7      -0.040000
      4 C6          -0.2840     0.4160     1.0070 ca         1 7T7      -0.170000
      5 C7          -3.7470    -1.0200     0.1130 c          1 7T7       0.621700
      6 C8          -5.9840    -0.3630     1.0780 c3         1 7T7       0.114000
      7 C10         -8.2740     0.5320     0.2130 c5         1 7T7      -0.111400
      8 C13          4.6970    -0.4260    -0.6170 c5         1 7T7       0.160300
      9 C15          7.1740    -0.7590    -1.3480 ca         1 7T7      -0.087500
     10 C17          8.8400     0.6220    -0.2110 ca         1 7T7      -0.104000
     11 C20          5.2770     1.3370     1.0810 c5         1 7T7       0.160300
     12 C16          8.5150    -0.3670    -1.1640 ca         1 7T7      -0.104000
     13 C3          -1.4070    -1.4890    -0.7140 ca         1 7T7      -0.040000
     14 C18          7.8260     1.2220     0.5600 ca         1 7T7      -0.087500
     15 C2          -0.0190    -1.2700    -0.7100 ca         1 7T7      -0.170000
     16 C19          6.4950     0.8190     0.3620 ca         1 7T7      -0.102300
     17 C14          6.1770    -0.1490    -0.5700 ca         1 7T7      -0.102300
     18 C1           0.5590    -0.3180     0.1480 ca         1 7T7       0.024000
     19 C            2.8490     0.6660     0.7850 c          1 7T7       0.672100
     20 C11         -8.7100     1.2090    -1.1200 c5         1 7T7       0.156600
     21 C12         -6.5490     0.3470    -1.3760 c5         1 7T7       0.157600
     22 C9          -6.7260     0.6120     0.1360 c5         1 7T7      -0.124700
     23 N2           4.2010     0.5270     0.4300 n          1 7T7      -0.437800
     24 N            1.9700    -0.1560     0.0910 ns         1 7T7      -0.159000
     25 O1          -4.2450    -1.8450    -0.6410 o          1 7T7      -0.607100
     26 O            2.5110     1.4640     1.6500 o          1 7T7      -0.624100
     27 O2          -7.5320     1.2220    -1.9620 os         1 7T7      -0.463000
     28 H1          -4.0420     0.3770     1.5750 hn         1 7T7       0.314500
     29 H2          -2.2810     0.7920     1.6870 ha         1 7T7       0.122500
     30 H3           0.1150     1.1620     1.6860 ha         1 7T7       0.132500
     31 H4          -6.3060    -1.3920     0.8670 h1         1 7T7       0.058200
     32 H5          -6.2690    -0.1360     2.1140 h1         1 7T7       0.058200
     33 H6          -8.6800     1.0440     1.0930 hc         1 7T7       0.053700
     34 H7          -8.6250    -0.5070     0.2510 hc         1 7T7       0.053700
     35 H9           4.4790    -1.4710    -0.3580 h1         1 7T7       0.060700
     36 H10          6.9180    -1.5200    -2.0810 ha         1 7T7       0.119000
     37 H11          9.8770     0.9210    -0.0720 ha         1 7T7       0.117000
     38 H12          5.3350     1.1450     2.1610 h1         1 7T7       0.060700
     39 H13          5.1360     2.4130     0.9130 h1         1 7T7       0.060700
     40 H14          9.3010    -0.8290    -1.7570 ha         1 7T7       0.117000
     41 H15         -1.8190    -2.2350    -1.3920 ha         1 7T7       0.122500
     42 H16          8.0700     1.9850     1.2960 ha         1 7T7       0.119000
     43 H17          0.6110    -1.8480    -1.3820 ha         1 7T7       0.132500
     44 H18         -9.5160     0.6530    -1.6180 h1         1 7T7       0.042700
     45 H19         -9.0420     2.2450    -0.9660 h1         1 7T7       0.042700
     46 H20         -5.5470     0.6020    -1.7460 h1         1 7T7       0.056200
     47 H21         -6.7780    -0.6940    -1.6450 h1         1 7T7       0.056200
     48 H22         -6.3810     1.6230     0.3840 hc         1 7T7       0.057700
     49 H23          2.4180    -0.7550    -0.5870 hn         1 7T7       0.150000
     50 H8           4.2810    -0.2020    -1.6080 h1         1 7T7       0.060700
@<TRIPOS>BOND
     1     1     5 1   
     2     1     6 1   
     3     1    28 1   
     4     2     3 ar  
     5     2     5 1   
     6     2    13 ar  
     7     3     4 ar  
     8     3    29 1   
     9     4    18 ar  
    10     4    30 1   
    11     5    25 2   
    12     6    22 1   
    13     6    31 1   
    14     6    32 1   
    15     7    20 1   
    16     7    22 1   
    17     7    33 1   
    18     7    34 1   
    19     8    17 1   
    20     8    23 1   
    21     8    35 1   
    22     8    50 1   
    23     9    12 ar  
    24     9    17 ar  
    25     9    36 1   
    26    10    12 ar  
    27    10    14 ar  
    28    10    37 1   
    29    11    16 1   
    30    11    23 1   
    31    11    38 1   
    32    11    39 1   
    33    12    40 1   
    34    13    15 ar  
    35    13    41 1   
    36    14    16 ar  
    37    14    42 1   
    38    15    18 ar  
    39    15    43 1   
    40    16    17 ar  
    41    18    24 1   
    42    19    23 1   
    43    19    24 1   
    44    19    26 2   
    45    20    27 1   
    46    20    44 1   
    47    20    45 1   
    48    21    22 1   
    49    21    27 1   
    50    21    46 1   
    51    21    47 1   
    52    22    48 1   
    53    24    49 1   
@<TRIPOS>SUBSTRUCTURE
     1 7T7         1 TEMP              0 ****  ****    0 ROOT
