@<TRIPOS>MOLECULE
7T9
   42    44     1     0     0
SMALL
abcg2


@<TRIPOS>ATOM
      1 C12          2.1950    -1.7770    -0.2590 ca         1 7T9      -0.098000
      2 C18          4.9320    -0.9970     0.7690 ca         1 7T9      -0.044000
      3 C11          0.8410    -2.0580    -0.3920 ca         1 7T9      -0.090000
      4 C19          6.2750    -0.6950     0.8840 ca         1 7T9      -0.196000
      5 C14          1.7240     0.5840    -0.1630 ca         1 7T9      -0.081000
      6 C23          4.6790     0.9160    -0.6130 ca         1 7T9       0.377900
      7 C13          2.6510    -0.4620    -0.1420 cp         1 7T9      -0.028000
      8 C17          4.0910    -0.1820     0.0070 cp         1 7T9      -0.103000
      9 C10         -0.0670    -1.0130    -0.4120 ca         1 7T9      -0.086300
     10 C15          0.3780     0.3030    -0.2990 ca         1 7T9      -0.086300
     11 C20          6.7140     0.4350     0.2170 ca         1 7T9       0.572200
     12 C9          -1.5610    -1.0500    -0.5490 c5         1 7T9      -0.062100
     13 C16         -0.7820     1.2530    -0.3470 c5         1 7T9      -0.030100
     14 C8          -1.9700     0.3350    -0.0110 c5         1 7T9       0.220500
     15 C1          -6.3510    -1.1700     1.2210 c3         1 7T9      -0.075100
     16 C3          -5.3510    -1.4970    -1.0780 c3         1 7T9      -0.075100
     17 C2          -5.1190    -1.0060     0.3410 c3         1 7T9      -0.304700
     18 N22          5.9700     1.2200    -0.5060 nb         1 7T9      -0.700000
     19 N7          -3.2260     0.8650    -0.5080 n7         1 7T9      -0.893300
     20 O5          -5.6220     1.4880    -0.4120 o          1 7T9      -0.527000
     21 O6          -4.3320     1.1110     1.7130 o          1 7T9      -0.527000
     22 F21          8.0030     0.7740     0.3030 f          1 7T9      -0.225200
     23 S4          -4.6270     0.7330     0.3370 s6         1 7T9       1.189100
     24 H12          2.9050    -2.5940    -0.2610 ha         1 7T9       0.116000
     25 H11          0.5090    -3.0860    -0.4800 ha         1 7T9       0.118000
     26 H18          4.5360    -1.8590     1.2910 ha         1 7T9       0.126000
     27 H19          6.9470    -1.3020     1.4740 ha         1 7T9       0.144000
     28 H14          2.0560     1.6090    -0.0430 ha         1 7T9       0.122000
     29 H23          4.0870     1.5770    -1.2360 h4         1 7T9       0.029100
     30 H91C        -1.8450    -1.1520    -1.6030 hc         1 7T9       0.057200
     31 H92C        -2.0290    -1.8750    -0.0080 hc         1 7T9       0.057200
     32 H161        -0.6990     2.0910     0.3440 hc         1 7T9       0.069200
     33 H162        -0.8940     1.6690    -1.3550 hc         1 7T9       0.069200
     34 H8          -2.0430     0.2740     1.0760 h1         1 7T9       0.084700
     35 H7          -3.3480     0.8620    -1.5140 hn         1 7T9       0.492000
     36 H11C        -6.6170    -2.2260     1.2560 hc         1 7T9       0.050700
     37 H12C        -6.1760    -0.8380     2.2420 hc         1 7T9       0.050700
     38 H13C        -7.2040    -0.6260     0.8160 hc         1 7T9       0.050700
     39 H2          -4.2740    -1.5350     0.7900 h1         1 7T9       0.085700
     40 H31C        -4.4680    -1.3980    -1.7090 hc         1 7T9       0.050700
     41 H32C        -5.6060    -2.5560    -1.0450 hc         1 7T9       0.050700
     42 H33C        -6.1780    -0.9690    -1.5510 hc         1 7T9       0.050700
@<TRIPOS>BOND
     1     1     3 ar  
     2     1     7 ar  
     3     1    24 1   
     4     2     4 ar  
     5     2     8 ar  
     6     2    26 1   
     7     3     9 ar  
     8     3    25 1   
     9     4    11 ar  
    10     4    27 1   
    11     5     7 ar  
    12     5    10 ar  
    13     5    28 1   
    14     6     8 ar  
    15     6    18 ar  
    16     6    29 1   
    17     7     8 1   
    18     9    10 ar  
    19     9    12 1   
    20    10    13 1   
    21    11    18 ar  
    22    11    22 1   
    23    12    14 1   
    24    12    30 1   
    25    12    31 1   
    26    13    14 1   
    27    13    32 1   
    28    13    33 1   
    29    14    19 1   
    30    14    34 1   
    31    15    17 1   
    32    15    36 1   
    33    15    37 1   
    34    15    38 1   
    35    16    17 1   
    36    16    40 1   
    37    16    41 1   
    38    16    42 1   
    39    17    23 1   
    40    17    39 1   
    41    19    23 1   
    42    19    35 1   
    43    20    23 2   
    44    21    23 2   
@<TRIPOS>SUBSTRUCTURE
     1 7T9         1 TEMP              0 ****  ****    0 ROOT
