@<TRIPOS>MOLECULE
7T9
   42    44     1     0     0
SMALL
No Charge or Current Charge


@<TRIPOS>ATOM
      1 C12          2.4380    -1.6600    -1.0030 ca         1 7T9      -0.098000
      2 C18          5.0020    -1.0770     0.5470 ca         1 7T9      -0.044000
      3 C11          1.1440    -2.0090    -1.4360 ca         1 7T9      -0.090000
      4 C19          6.2790    -0.6720     0.9650 ca         1 7T9      -0.196000
      5 C14          1.5640     0.3840    -0.0040 ca         1 7T9      -0.081000
      6 C23          4.4720     1.2670     0.2590 ca         1 7T9       0.377900
      7 C13          2.6760    -0.4580    -0.2780 cp         1 7T9      -0.028000
      8 C17          4.0550    -0.0900     0.1770 cp         1 7T9      -0.103000
      9 C10          0.0760    -1.1510    -1.1390 ca         1 7T9      -0.086300
     10 C15          0.2820     0.0180    -0.4400 ca         1 7T9      -0.086300
     11 C20          6.5750     0.6950     1.0040 ca         1 7T9       0.572200
     12 C9          -1.3690    -1.3370    -1.5190 c5         1 7T9      -0.062100
     13 C16         -0.9970     0.7870    -0.2370 c5         1 7T9      -0.030100
     14 C8          -2.0650    -0.3510    -0.5010 c5         1 7T9       0.220500
     15 C1          -6.1880    -0.1830     1.7220 c3         1 7T9      -0.075100
     16 C3          -5.5900    -1.7160    -0.2450 c3         1 7T9      -0.075100
     17 C2          -5.0860    -0.6020     0.7140 c3         1 7T9      -0.304700
     18 N22          5.7030     1.6630     0.6610 nb         1 7T9      -0.700000
     19 N7          -3.2570     0.2210    -1.1840 n7         1 7T9      -0.893300
     20 O5          -5.4470     1.4140    -1.0450 o          1 7T9      -0.527000
     21 O6          -3.7280     1.7290     0.7890 o          1 7T9      -0.527000
     22 F21          7.7910     1.1260     1.4010 f          1 7T9      -0.225200
     23 S4          -4.4200     0.8570    -0.1630 s6         1 7T9       1.189100
     24 H12          3.2650    -2.3210    -1.2470 ha         1 7T9       0.116000
     25 H11          0.9770    -2.9270    -1.9950 ha         1 7T9       0.118000
     26 H18          4.7490    -2.1350     0.5230 ha         1 7T9       0.126000
     27 H19          7.0300    -1.3990     1.2590 ha         1 7T9       0.144000
     28 H14          1.6930     1.3080     0.5560 ha         1 7T9       0.122000
     29 H23          3.7920     2.0700    -0.0230 h4         1 7T9       0.029100
     30 H91C        -1.5350    -1.0500    -2.5630 hc         1 7T9       0.057200
     31 H92C        -1.7160    -2.3690    -1.3950 hc         1 7T9       0.057200
     32 H161        -1.0820     1.2100     0.7700 hc         1 7T9       0.069200
     33 H162        -1.0830     1.6090    -0.9560 hc         1 7T9       0.069200
     34 H8          -2.2970    -0.8920     0.4280 h1         1 7T9       0.084700
     35 H7          -3.7950    -0.5330    -1.6030 hn         1 7T9       0.492000
     36 H11C        -6.5350    -1.0480     2.3000 hc         1 7T9       0.050700
     37 H12C        -5.8090     0.5620     2.4330 hc         1 7T9       0.050700
     38 H13C        -7.0540     0.2480     1.2030 hc         1 7T9       0.050700
     39 H2          -4.2470    -0.9980     1.2960 h1         1 7T9       0.085700
     40 H31C        -4.7770    -2.1190    -0.8620 hc         1 7T9       0.050700
     41 H32C        -6.0040    -2.5550     0.3280 hc         1 7T9       0.050700
     42 H33C        -6.3790    -1.3410    -0.9090 hc         1 7T9       0.050700
@<TRIPOS>BOND
     1     1     3 ar  
     2     1     7 ar  
     3     1    24 1   
     4     2     4 ar  
     5     2     8 ar  
     6     2    26 1   
     7     3     9 ar  
     8     3    25 1   
     9     4    11 ar  
    10     4    27 1   
    11     5     7 ar  
    12     5    10 ar  
    13     5    28 1   
    14     6     8 ar  
    15     6    18 ar  
    16     6    29 1   
    17     7     8 1   
    18     9    10 ar  
    19     9    12 1   
    20    10    13 1   
    21    11    18 ar  
    22    11    22 1   
    23    12    14 1   
    24    12    30 1   
    25    12    31 1   
    26    13    14 1   
    27    13    32 1   
    28    13    33 1   
    29    14    19 1   
    30    14    34 1   
    31    15    17 1   
    32    15    36 1   
    33    15    37 1   
    34    15    38 1   
    35    16    17 1   
    36    16    40 1   
    37    16    41 1   
    38    16    42 1   
    39    17    23 1   
    40    17    39 1   
    41    19    23 1   
    42    19    35 1   
    43    20    23 2   
    44    21    23 2   
@<TRIPOS>SUBSTRUCTURE
     1 7T9         1 TEMP              0 ****  ****    0 ROOT
