@<TRIPOS>MOLECULE
7TA
   55    58     1     0     0
SMALL
bcc


@<TRIPOS>ATOM
      1 N1           2.5060     0.3960     0.0820 ns         1 7TA      -0.466100
      2 N3           8.9530     0.4470    -0.7290 nb         1 7TA      -0.670000
      3 C4          -5.3730     1.1630    -0.9110 c6         1 7TA       0.094500
      4 C5          -3.8730     0.9190    -1.0400 c6         1 7TA      -0.096900
      5 C6          -3.1370     1.3440     0.2340 c6         1 7TA      -0.011400
      6 C7          -3.7820     0.6920     1.4620 c6         1 7TA      -0.096900
      7 C8          -5.2850     0.9450     1.4890 c6         1 7TA       0.094500
      8 C10         -1.1610    -0.2060    -0.0910 ca         1 7TA      -0.097000
      9 C13          3.2010    -0.7540     0.1450 c          1 7TA       0.798100
     10 C15          6.7600    -1.0220     0.2050 ca         1 7TA      -0.089000
     11 C17          9.1040    -0.7300    -0.0410 ca         1 7TA       0.367200
     12 C20          5.2470     0.4650    -0.6050 cc         1 7TA      -0.129400
     13 C21          0.6300     1.8320     0.3760 ca         1 7TA      -0.156500
     14 C22         -0.7320     2.0810     0.4010 ca         1 7TA      -0.097000
     15 O1           2.7530    -1.8640     0.3030 o          1 7TA      -0.551100
     16 N2           4.6080    -0.5700     0.0170 n          1 7TA      -0.197200
     17 C19          6.5980     0.2130    -0.5050 ca         1 7TA      -0.211300
     18 C18          7.7560     0.8990    -0.9540 ca         1 7TA       0.455200
     19 C16          8.0810    -1.4880     0.4370 ca         1 7TA      -0.190300
     20 C14          5.5020    -1.4880     0.5070 cc         1 7TA      -0.092400
     21 C12          1.1100     0.5510     0.1140 ca         1 7TA       0.065600
     22 C11          0.1990    -0.4760    -0.1270 ca         1 7TA      -0.156500
     23 C9          -1.6570     1.0680     0.1720 ca         1 7TA      -0.090300
     24 N           -5.9010     0.4800     0.2570 n          1 7TA      -0.475800
     25 C3          -6.6490    -0.6490     0.2470 c          1 7TA       0.671100
     26 O           -6.9070    -1.2540     1.2810 o          1 7TA      -0.603100
     27 C1          -7.2320    -1.1170    -1.0810 c3         1 7TA      -0.134700
     28 C2          -7.6110    -2.5900    -1.0220 c3         1 7TA      -0.082100
     29 C           -8.4480    -0.2520    -1.4290 c3         1 7TA      -0.082100
     30 H1           3.0250     1.2590     0.1420 hn         1 7TA       0.333500
     31 H3          -5.8850     0.8530    -1.8170 h1         1 7TA       0.057200
     32 H4          -3.7070    -0.1430    -1.2430 hc         1 7TA       0.053200
     33 H5          -3.4880     1.4730    -1.8990 hc         1 7TA       0.053200
     34 H6          -3.2650     2.4290     0.3370 hc         1 7TA       0.049700
     35 H7          -3.5980    -0.3860     1.4590 hc         1 7TA       0.053200
     36 H8          -3.3300     1.0900     2.3740 hc         1 7TA       0.053200
     37 H9          -5.7470     0.4530     2.3390 h1         1 7TA       0.057200
     38 H10         -5.4790     2.0180     1.5850 h1         1 7TA       0.057200
     39 H11         -1.8450    -1.0260    -0.2750 ha         1 7TA       0.136000
     40 H12         10.1290    -1.0450     0.1100 h4         1 7TA       0.015100
     41 H13          4.7230     1.2610    -1.1060 h4         1 7TA       0.173000
     42 H14          1.3250     2.6430     0.5610 ha         1 7TA       0.147000
     43 H15         -1.0760     3.0870     0.6090 ha         1 7TA       0.136000
     44 H16          7.6630     1.8320    -1.5020 h4         1 7TA       0.015100
     45 H17          8.2760    -2.4080     0.9700 ha         1 7TA       0.140000
     46 H18          5.1770    -2.3670     1.0360 h4         1 7TA       0.193000
     47 H19          0.5270    -1.4790    -0.3460 ha         1 7TA       0.147000
     48 H20         -6.4890    -1.0020    -1.8740 hc         1 7TA       0.052700
     49 H21         -8.3950    -2.7770    -0.2880 hc         1 7TA       0.041367
     50 H22         -7.9810    -2.9110    -1.9960 hc         1 7TA       0.041367
     51 H23         -6.7570    -3.2180    -0.7690 hc         1 7TA       0.041367
     52 H24         -8.1920     0.8010    -1.5460 hc         1 7TA       0.041367
     53 H25         -8.8960    -0.5880    -2.3650 hc         1 7TA       0.041367
     54 H26         -9.2080    -0.3260    -0.6500 hc         1 7TA       0.041367
     55 H2          -5.5670     2.2340    -0.7960 h1         1 7TA       0.057200
@<TRIPOS>BOND
     1     1     9 1   
     2     1    21 1   
     3     1    30 1   
     4     2    11 ar  
     5     2    18 ar  
     6     3     4 1   
     7     3    24 1   
     8     3    31 1   
     9     3    55 1   
    10     4     5 1   
    11     4    32 1   
    12     4    33 1   
    13     5     6 1   
    14     5    23 1   
    15     5    34 1   
    16     6     7 1   
    17     6    35 1   
    18     6    36 1   
    19     7    24 1   
    20     7    37 1   
    21     7    38 1   
    22     8    22 ar  
    23     8    23 ar  
    24     8    39 1   
    25     9    15 2   
    26     9    16 1   
    27    10    17 ar  
    28    10    19 ar  
    29    10    20 2   
    30    11    19 ar  
    31    11    40 1   
    32    12    16 1   
    33    12    17 2   
    34    12    41 1   
    35    13    14 ar  
    36    13    21 ar  
    37    13    42 1   
    38    14    23 ar  
    39    14    43 1   
    40    16    20 1   
    41    17    18 ar  
    42    18    44 1   
    43    19    45 1   
    44    20    46 1   
    45    21    22 ar  
    46    22    47 1   
    47    24    25 1   
    48    25    26 2   
    49    25    27 1   
    50    27    28 1   
    51    27    29 1   
    52    27    48 1   
    53    28    49 1   
    54    28    50 1   
    55    28    51 1   
    56    29    52 1   
    57    29    53 1   
    58    29    54 1   
@<TRIPOS>SUBSTRUCTURE
     1 7TA         1 TEMP              0 ****  ****    0 ROOT
