@<TRIPOS>MOLECULE
7TA
   55    58     1     0     0
SMALL
No Charge or Current Charge


@<TRIPOS>ATOM
      1 N1           2.7330     0.2290     0.0490 ns         1 7TA      -0.140000
      2 N3           9.3280     1.1970    -0.2590 nb         1 7TA      -0.670000
      3 C4          -5.2490     0.4000    -1.0730 c6         1 7TA       0.094500
      4 C5          -3.7200     0.1700    -1.0880 c6         1 7TA      -0.096900
      5 C6          -3.0350     0.8150     0.1350 c6         1 7TA      -0.011400
      6 C7          -3.6770     0.2340     1.4120 c6         1 7TA      -0.096900
      7 C8          -5.2050     0.4680     1.4330 c6         1 7TA       0.094500
      8 C10         -0.9340    -0.6580     0.1390 ca         1 7TA      -0.079000
      9 C13          3.6170    -0.8420     0.1270 c          1 7TA       0.664100
     10 C15          7.2810    -0.7040    -0.0010 ca         1 7TA      -0.089000
     11 C17          9.6060    -0.1320    -0.1320 ca         1 7TA       0.301900
     12 C20          5.5480     0.7910    -0.1010 cc         1 7TA      -0.179400
     13 C21          0.7320     1.5910     0.0460 ca         1 7TA      -0.138500
     14 C22         -0.6640     1.7510     0.0660 ca         1 7TA      -0.079000
     15 O1           3.2590    -2.0090     0.2570 o          1 7TA      -0.551100
     16 N2           4.9990    -0.5020     0.0490 n          1 7TA      -0.130200
     17 C19          6.9890     0.6330    -0.1290 ca         1 7TA      -0.146000
     18 C18          8.0210     1.5800    -0.2580 ca         1 7TA       0.389900
     19 C16          8.6140    -1.1300     0.0020 ca         1 7TA      -0.107000
     20 C14          6.0440    -1.4420     0.1130 cc         1 7TA      -0.142400
     21 C12          1.3120     0.3090     0.0740 ca         1 7TA      -0.027000
     22 C11          0.4620    -0.8180     0.1180 ca         1 7TA      -0.138500
     23 C9          -1.5100     0.6280     0.1140 ca         1 7TA      -0.090300
     24 N           -5.9180    -0.0020     0.2060 n          1 7TA      -0.408800
     25 C3          -7.3280    -0.1380     0.2580 c          1 7TA       0.604100
     26 O           -7.9500     0.2300     1.2480 o          1 7TA      -0.603100
     27 C1          -8.0720    -0.7950    -0.9360 c3         1 7TA      -0.134700
     28 C2          -9.1140    -1.8400    -0.4660 c3         1 7TA      -0.082100
     29 C           -8.7210     0.2870    -1.8320 c3         1 7TA      -0.082100
     30 H1           3.1850     1.1270    -0.0450 hn         1 7TA       0.167000
     31 H3          -5.6740    -0.1350    -1.9300 h1         1 7TA       0.057200
     32 H4          -3.5220    -0.9110    -1.1090 hc         1 7TA       0.053200
     33 H5          -3.2960     0.5810    -2.0140 hc         1 7TA       0.053200
     34 H6          -3.2540     1.8920     0.1120 hc         1 7TA       0.049700
     35 H7          -3.4790    -0.8450     1.4810 hc         1 7TA       0.053200
     36 H8          -3.2230     0.6910     2.3020 hc         1 7TA       0.053200
     37 H9          -5.6210    -0.0410     2.3150 h1         1 7TA       0.057200
     38 H10         -5.4000     1.5430     1.5600 h1         1 7TA       0.057200
     39 H11         -1.5680    -1.5410     0.1730 ha         1 7TA       0.118000
     40 H12         10.6610    -0.4050    -0.1360 h4         1 7TA       0.015100
     41 H13          4.8890     1.6510    -0.1700 h4         1 7TA       0.223000
     42 H14          1.3660     2.4750     0.0090 ha         1 7TA       0.129000
     43 H15         -1.0850     2.7540     0.0450 ha         1 7TA       0.118000
     44 H16          7.8100     2.6440    -0.3610 h4         1 7TA       0.015100
     45 H17          8.8810    -2.1780     0.1010 ha         1 7TA       0.122000
     46 H18          5.7870    -2.4920     0.2290 h4         1 7TA       0.243000
     47 H19          0.8590    -1.8280     0.1340 ha         1 7TA       0.129000
     48 H20         -7.3420    -1.3180    -1.5610 hc         1 7TA       0.052700
     49 H21         -9.9100    -1.3680     0.1230 hc         1 7TA       0.041367
     50 H22         -9.5760    -2.3390    -1.3260 hc         1 7TA       0.041367
     51 H23         -8.6360    -2.6080     0.1550 hc         1 7TA       0.041367
     52 H24         -7.9690     0.9970    -2.1940 hc         1 7TA       0.041367
     53 H25         -9.2030    -0.1700    -2.7050 hc         1 7TA       0.041367
     54 H26         -9.4820     0.8490    -1.2760 hc         1 7TA       0.041367
     55 H2          -5.4460     1.4690    -1.2400 h1         1 7TA       0.057200
@<TRIPOS>BOND
     1     1     9 1   
     2     1    21 1   
     3     1    30 1   
     4     2    11 ar  
     5     2    18 ar  
     6     3     4 1   
     7     3    24 1   
     8     3    31 1   
     9     3    55 1   
    10     4     5 1   
    11     4    32 1   
    12     4    33 1   
    13     5     6 1   
    14     5    23 1   
    15     5    34 1   
    16     6     7 1   
    17     6    35 1   
    18     6    36 1   
    19     7    24 1   
    20     7    37 1   
    21     7    38 1   
    22     8    22 ar  
    23     8    23 ar  
    24     8    39 1   
    25     9    15 2   
    26     9    16 1   
    27    10    17 ar  
    28    10    19 ar  
    29    10    20 2   
    30    11    19 ar  
    31    11    40 1   
    32    12    16 1   
    33    12    17 2   
    34    12    41 1   
    35    13    14 ar  
    36    13    21 ar  
    37    13    42 1   
    38    14    23 ar  
    39    14    43 1   
    40    16    20 1   
    41    17    18 ar  
    42    18    44 1   
    43    19    45 1   
    44    20    46 1   
    45    21    22 ar  
    46    22    47 1   
    47    24    25 1   
    48    25    26 2   
    49    25    27 1   
    50    27    28 1   
    51    27    29 1   
    52    27    48 1   
    53    28    49 1   
    54    28    50 1   
    55    28    51 1   
    56    29    52 1   
    57    29    53 1   
    58    29    54 1   
@<TRIPOS>SUBSTRUCTURE
     1 7TA         1 TEMP              0 ****  ****    0 ROOT
