@<TRIPOS>MOLECULE
7TB
   78    79     1     0     0
SMALL
bcc


@<TRIPOS>ATOM
      1 C10        136.1760   127.0000   135.5650 c3         1 7TB       0.131300
      2 C13        138.8200   126.4420   138.2850 c3         1 7TB      -0.124600
      3 C15        132.2730   141.7090   142.6540 c3         1 7TB      -0.075400
      4 C20        132.1710   139.2210   142.0520 c3         1 7TB      -0.111400
      5 C21        132.9380   145.0900   140.7900 c3         1 7TB      -0.076400
      6 C22        134.0480   130.2290   140.8220 ca         1 7TB      -0.202600
      7 C24        133.9840   145.5650   139.7910 c3         1 7TB      -0.089100
      8 C26        134.8640   131.3510   140.6980 ca         1 7TB      -0.037000
      9 C28        133.5550   132.5430   142.3290 ca         1 7TB       0.135600
     10 C08        136.7380   128.4630   137.5130 c3         1 7TB       0.112800
     11 C09        137.7790   126.2120   137.2120 c3         1 7TB       0.131300
     12 C11        138.3540   128.1040   135.7660 c3         1 7TB       0.103100
     13 C12        135.6020   127.9680   138.3940 c3         1 7TB       0.133400
     14 C14        135.4110   128.1000   134.8640 c3         1 7TB      -0.124600
     15 C16        132.0650   143.1430   142.1750 c3         1 7TB      -0.074400
     16 C17        132.1150   140.6630   141.5530 c3         1 7TB      -0.075400
     17 C18        134.2710   128.9890   140.0530 c          1 7TB       0.671700
     18 C19        133.1100   143.6250   141.1750 c3         1 7TB      -0.076400
     19 C23        133.5580   138.8390   142.5390 c3         1 7TB       0.136400
     20 C25        132.9740   130.2820   141.7100 ca         1 7TB      -0.037000
     21 C27        133.2350   137.0530   144.1080 ca         1 7TB       0.204100
     22 C29        132.7290   131.4190   142.4490 ca         1 7TB      -0.191500
     23 C30        134.6310   132.4960   141.4390 ca         1 7TB      -0.191500
     24 C31        133.3400   135.6760   144.3690 ca         1 7TB      -0.212600
     25 C32        133.9730   134.7630   143.3690 c          1 7TB       0.706700
     26 C33        132.6960   137.8880   145.0870 ca         1 7TB      -0.225000
     27 C34        132.9100   135.1720   145.5920 ca         1 7TB      -0.071000
     28 C35        132.2850   137.3630   146.3040 ca         1 7TB      -0.059000
     29 C36        132.3880   136.0070   146.5690 ca         1 7TB      -0.172000
     30 N06        137.2500   127.4570   136.5320 n4         1 7TB      -0.617800
     31 N07        133.2280   133.6490   143.1060 ns         1 7TB      -0.476100
     32 O02        135.2880   129.0970   139.1990 os         1 7TB      -0.427900
     33 O04        133.6160   127.9830   140.1710 o          1 7TB      -0.525000
     34 O05        135.0550   134.9880   142.8660 o          1 7TB      -0.548100
     35 H1         135.4930   126.3620   136.1240 hx         1 7TB       0.091700
     36 H2         136.6880   126.3660   134.8420 hx         1 7TB       0.091700
     37 H3         139.1330   125.4590   138.6370 hc         1 7TB       0.075867
     38 H4         139.7110   126.9500   137.9220 hc         1 7TB       0.075867
     39 H5         138.4330   126.9800   139.1490 hc         1 7TB       0.075867
     40 H6         133.2640   141.6340   143.1120 hc         1 7TB       0.036200
     41 H7         131.5540   141.4890   143.4490 hc         1 7TB       0.036200
     42 H8         131.4290   139.0810   142.8450 hc         1 7TB       0.051700
     43 H9         131.8920   138.5440   141.2410 hc         1 7TB       0.051700
     44 H10        132.9830   145.7080   141.6920 hc         1 7TB       0.038200
     45 H11        131.9380   145.2390   140.3720 hc         1 7TB       0.038200
     46 H12        133.8440   146.6150   139.5320 hc         1 7TB       0.032367
     47 H13        134.9930   145.4560   140.1930 hc         1 7TB       0.032367
     48 H14        133.9360   144.9870   138.8660 hc         1 7TB       0.032367
     49 H15        135.7020   131.3520   140.0150 ha         1 7TB       0.144500
     50 H16        137.5820   128.7740   138.1260 hx         1 7TB       0.104700
     51 H17        136.4160   129.3330   136.9420 hx         1 7TB       0.104700
     52 H18        136.9210   125.6840   137.6250 hx         1 7TB       0.091700
     53 H19        138.1830   125.5920   136.4120 hx         1 7TB       0.091700
     54 H20        139.1280   128.4390   136.4500 hx         1 7TB       0.095033
     55 H21        138.7680   127.3840   135.0640 hx         1 7TB       0.095033
     56 H22        137.9720   128.9650   135.2280 hx         1 7TB       0.095033
     57 H23        134.7310   127.6630   137.8090 h1         1 7TB       0.064700
     58 H24        135.9040   127.1270   139.0210 h1         1 7TB       0.064700
     59 H25        134.7310   127.6150   134.1650 hc         1 7TB       0.075867
     60 H26        134.8020   128.6950   135.5420 hc         1 7TB       0.075867
     61 H27        136.0470   128.7650   134.2840 hc         1 7TB       0.075867
     62 H28        131.0670   143.2370   141.7330 hc         1 7TB       0.041200
     63 H29        132.0740   143.8100   143.0440 hc         1 7TB       0.041200
     64 H30        131.1530   140.8200   141.0570 hc         1 7TB       0.045700
     65 H31        132.8780   140.8060   140.7810 hc         1 7TB       0.045700
     66 H32        134.1100   143.4780   141.6000 hc         1 7TB       0.036200
     67 H33        133.0750   143.0130   140.2680 hc         1 7TB       0.036200
     68 H34        134.2750   138.9620   141.7250 h1         1 7TB       0.061200
     69 H35        133.8990   139.4770   143.3590 h1         1 7TB       0.061200
     70 H36        132.3220   129.4260   141.8280 ha         1 7TB       0.144500
     71 H37        131.8900   131.4380   143.1330 ha         1 7TB       0.160000
     72 H38        135.2840   133.3430   141.3100 ha         1 7TB       0.160000
     73 H39        132.5850   138.9500   144.9170 ha         1 7TB       0.147000
     74 H40        133.0040   134.1120   145.7960 ha         1 7TB       0.132000
     75 H41        131.8750   138.0320   147.0500 ha         1 7TB       0.139000
     76 H42        132.0680   135.6020   147.5190 ha         1 7TB       0.144000
     77 H43        132.3350   133.5920   143.5740 hn         1 7TB       0.328500
     78 O03        133.6530   137.4670   142.9050 os         1 7TB      -0.311900
@<TRIPOS>BOND
     1     1    14 1   
     2     1    30 1   
     3     1    35 1   
     4     1    36 1   
     5     2    11 1   
     6     2    37 1   
     7     2    38 1   
     8     2    39 1   
     9     3    15 1   
    10     3    16 1   
    11     3    40 1   
    12     3    41 1   
    13     4    16 1   
    14     4    19 1   
    15     4    42 1   
    16     4    43 1   
    17     5     7 1   
    18     5    18 1   
    19     5    44 1   
    20     5    45 1   
    21     6     8 ar  
    22     6    17 1   
    23     6    20 ar  
    24     7    46 1   
    25     7    47 1   
    26     7    48 1   
    27     8    23 ar  
    28     8    49 1   
    29     9    22 ar  
    30     9    23 ar  
    31     9    31 1   
    32    10    13 1   
    33    10    30 1   
    34    10    50 1   
    35    10    51 1   
    36    11    30 1   
    37    11    52 1   
    38    11    53 1   
    39    12    30 1   
    40    12    54 1   
    41    12    55 1   
    42    12    56 1   
    43    13    32 1   
    44    13    57 1   
    45    13    58 1   
    46    14    59 1   
    47    14    60 1   
    48    14    61 1   
    49    15    18 1   
    50    15    62 1   
    51    15    63 1   
    52    16    64 1   
    53    16    65 1   
    54    17    32 1   
    55    17    33 2   
    56    18    66 1   
    57    18    67 1   
    58    19    68 1   
    59    19    69 1   
    60    19    78 1   
    61    20    22 ar  
    62    20    70 1   
    63    21    24 ar  
    64    21    26 ar  
    65    21    78 1   
    66    22    71 1   
    67    23    72 1   
    68    24    25 1   
    69    24    27 ar  
    70    25    31 1   
    71    25    34 2   
    72    26    28 ar  
    73    26    73 1   
    74    27    29 ar  
    75    27    74 1   
    76    28    29 ar  
    77    28    75 1   
    78    29    76 1   
    79    31    77 1   
@<TRIPOS>SUBSTRUCTURE
     1 7TB         1 TEMP              0 ****  ****    0 ROOT
