@<TRIPOS>MOLECULE
7TB
   78    79     1     0     0
SMALL
No Charge or Current Charge


@<TRIPOS>ATOM
      1 C10        136.1380   126.6410   135.5250 c3         1 7TB       0.103100
      2 C13        139.1500   126.4360   138.0480 c3         1 7TB      -0.124600
      3 C15        132.3610   141.9210   142.7060 c3         1 7TB      -0.075400
      4 C20        132.4880   139.3950   142.1220 c3         1 7TB      -0.111400
      5 C21        132.8570   145.3960   140.8450 c3         1 7TB      -0.076400
      6 C22        134.1390   130.0570   140.9910 ca         1 7TB      -0.202600
      7 C24        133.9230   145.9750   139.8950 c3         1 7TB      -0.089100
      8 C26        134.7780   131.2770   140.6770 ca         1 7TB      -0.019000
      9 C28        133.5750   132.4130   142.4790 ca         1 7TB       0.043000
     10 C08        136.7310   128.2820   137.3720 c3         1 7TB       0.084600
     11 C09        137.9750   126.0810   137.1150 c3         1 7TB       0.103100
     12 C11        138.2940   127.9240   135.4410 c3         1 7TB       0.074900
     13 C12        135.6900   127.8180   138.4100 c3         1 7TB       0.156600
     14 C14        135.2790   127.6160   134.6950 c3         1 7TB      -0.124600
     15 C16        132.0660   143.3550   142.2050 c3         1 7TB      -0.074400
     16 C17        132.3480   140.8420   141.5940 c3         1 7TB      -0.075400
     17 C18        134.4250   128.7950   140.2150 c          1 7TB       0.622700
     18 C19        133.1400   143.9340   141.2540 c3         1 7TB      -0.076400
     19 C23        133.8540   139.0970   142.7880 c3         1 7TB       0.159600
     20 C25        133.2110   130.0330   142.0530 ca         1 7TB      -0.019000
     21 C27        133.1850   137.1600   144.2160 ca         1 7TB       0.204100
     22 C29        132.9340   131.2000   142.7840 ca         1 7TB      -0.173500
     23 C30        134.4970   132.4420   141.4120 ca         1 7TB      -0.173500
     24 C31        133.0920   135.7490   144.3350 ca         1 7TB      -0.212600
     25 C32        133.7870   134.8240   143.3500 c          1 7TB       0.639700
     26 C33        132.5380   137.9880   145.1640 ca         1 7TB      -0.207000
     27 C34        132.3300   135.2050   145.4020 ca         1 7TB      -0.053000
     28 C35        131.7930   137.4310   146.2120 ca         1 7TB      -0.041000
     29 C36        131.6880   136.0400   146.3270 ca         1 7TB      -0.154000
     30 N06        137.2790   127.2370   136.3710 n4         1 7TB      -0.505000
     31 N07        133.2370   133.5510   143.2610 ns         1 7TB      -0.150000
     32 O02        135.3450   128.9620   139.2110 os         1 7TB      -0.451100
     33 O04        133.8850   127.7250   140.4620 o          1 7TB      -0.476000
     34 O05        134.7920   135.1540   142.7310 o          1 7TB      -0.548100
     35 H1         135.4800   126.0910   136.2010 hx         1 7TB       0.091700
     36 H2         136.5870   125.9140   134.8430 hx         1 7TB       0.091700
     37 H3         139.5510   125.5250   138.5060 hc         1 7TB       0.075867
     38 H4         139.9610   126.9210   137.4930 hc         1 7TB       0.075867
     39 H5         138.8270   127.1050   138.8530 hc         1 7TB       0.075867
     40 H6         133.3320   141.9180   143.2160 hc         1 7TB       0.036200
     41 H7         131.6090   141.6590   143.4600 hc         1 7TB       0.036200
     42 H8         131.6710   139.1920   142.8240 hc         1 7TB       0.051700
     43 H9         132.3540   138.7040   141.2800 hc         1 7TB       0.051700
     44 H10        132.8030   146.0220   141.7440 hc         1 7TB       0.038200
     45 H11        131.8760   145.4530   140.3560 hc         1 7TB       0.038200
     46 H12        133.6800   147.0110   139.6330 hc         1 7TB       0.032367
     47 H13        134.9120   145.9630   140.3690 hc         1 7TB       0.032367
     48 H14        133.9760   145.3900   138.9690 hc         1 7TB       0.032367
     49 H15        135.4950   131.3360   139.8600 ha         1 7TB       0.126500
     50 H16        137.5830   128.6990   137.9130 hx         1 7TB       0.104700
     51 H17        136.2880   129.0930   136.7910 hx         1 7TB       0.104700
     52 H18        137.2130   125.5630   137.7020 hx         1 7TB       0.091700
     53 H19        138.3360   125.3810   136.3580 hx         1 7TB       0.091700
     54 H20        139.1130   128.3330   136.0360 hx         1 7TB       0.095033
     55 H21        138.6850   127.1920   134.7310 hx         1 7TB       0.095033
     56 H22        137.8000   128.7330   134.8990 hx         1 7TB       0.095033
     57 H23        134.8060   127.4220   137.8950 h1         1 7TB       0.064700
     58 H24        136.1190   127.0210   139.0320 h1         1 7TB       0.064700
     59 H25        134.5130   127.0610   134.1420 hc         1 7TB       0.075867
     60 H26        134.7710   128.3410   135.3400 hc         1 7TB       0.075867
     61 H27        135.8910   128.1610   133.9680 hc         1 7TB       0.075867
     62 H28        131.0900   143.3700   141.7050 hc         1 7TB       0.041200
     63 H29        131.9790   144.0130   143.0790 hc         1 7TB       0.041200
     64 H30        131.4050   140.9180   141.0380 hc         1 7TB       0.045700
     65 H31        133.1540   141.0370   140.8760 hc         1 7TB       0.045700
     66 H32        134.1210   143.8810   141.7420 hc         1 7TB       0.036200
     67 H33        133.1980   143.3200   140.3470 hc         1 7TB       0.036200
     68 H34        134.6470   139.3040   142.0580 h1         1 7TB       0.061200
     69 H35        134.0320   139.7490   143.6510 h1         1 7TB       0.061200
     70 H36        132.7000   129.1090   142.3170 ha         1 7TB       0.126500
     71 H37        132.2140   131.1560   143.5990 ha         1 7TB       0.142000
     72 H38        135.0020   133.3590   141.1260 ha         1 7TB       0.142000
     73 H39        132.5990   139.0700   145.1050 ha         1 7TB       0.129000
     74 H40        132.2420   134.1300   145.5430 ha         1 7TB       0.114000
     75 H41        131.2980   138.0770   146.9350 ha         1 7TB       0.121000
     76 H42        131.1140   135.6060   147.1430 ha         1 7TB       0.126000
     77 H43        132.4280   133.4120   143.8500 hn         1 7TB       0.162000
     78 O03        133.8970   137.7040   143.1600 os         1 7TB      -0.335100
@<TRIPOS>BOND
     1     1    14 1   
     2     1    30 1   
     3     1    35 1   
     4     1    36 1   
     5     2    11 1   
     6     2    37 1   
     7     2    38 1   
     8     2    39 1   
     9     3    15 1   
    10     3    16 1   
    11     3    40 1   
    12     3    41 1   
    13     4    16 1   
    14     4    19 1   
    15     4    42 1   
    16     4    43 1   
    17     5     7 1   
    18     5    18 1   
    19     5    44 1   
    20     5    45 1   
    21     6     8 ar  
    22     6    17 1   
    23     6    20 ar  
    24     7    46 1   
    25     7    47 1   
    26     7    48 1   
    27     8    23 ar  
    28     8    49 1   
    29     9    22 ar  
    30     9    23 ar  
    31     9    31 1   
    32    10    13 1   
    33    10    30 1   
    34    10    50 1   
    35    10    51 1   
    36    11    30 1   
    37    11    52 1   
    38    11    53 1   
    39    12    30 1   
    40    12    54 1   
    41    12    55 1   
    42    12    56 1   
    43    13    32 1   
    44    13    57 1   
    45    13    58 1   
    46    14    59 1   
    47    14    60 1   
    48    14    61 1   
    49    15    18 1   
    50    15    62 1   
    51    15    63 1   
    52    16    64 1   
    53    16    65 1   
    54    17    32 1   
    55    17    33 2   
    56    18    66 1   
    57    18    67 1   
    58    19    68 1   
    59    19    69 1   
    60    19    78 1   
    61    20    22 ar  
    62    20    70 1   
    63    21    24 ar  
    64    21    26 ar  
    65    21    78 1   
    66    22    71 1   
    67    23    72 1   
    68    24    25 1   
    69    24    27 ar  
    70    25    31 1   
    71    25    34 2   
    72    26    28 ar  
    73    26    73 1   
    74    27    29 ar  
    75    27    74 1   
    76    28    29 ar  
    77    28    75 1   
    78    29    76 1   
    79    31    77 1   
@<TRIPOS>SUBSTRUCTURE
     1 7TB         1 TEMP              0 ****  ****    0 ROOT
