@<TRIPOS>MOLECULE
7TC
   30    30     1     0     0
SMALL
No Charge or Current Charge


@<TRIPOS>ATOM
      1 C11         33.2460   -19.4860    11.4290 c5         1 7TC      -0.065500
      2 C12         33.8750   -18.0740    11.4020 c3         1 7TC      -0.069100
      3 N           33.4290   -21.8770    11.6180 n2         1 7TC      -0.602900
      4 C           36.0700   -22.1040    12.4250 c          1 7TC       0.625900
      5 O           36.6770   -22.8050    11.6200 o          1 7TC      -0.518100
      6 C1          33.1100   -20.1790    10.0890 ce         1 7TC      -0.211800
      7 C13         32.9450   -19.5800     8.8830 c2         1 7TC      -0.283000
      8 C2          35.5600   -20.6900    12.1090 c3         1 7TC      -0.175700
      9 C3          33.9950   -20.6290    12.2110 c5         1 7TC       0.107500
     10 C4          33.1430   -21.6340    10.3630 ce         1 7TC       0.413600
     11 C5          36.3320   -19.6560    12.9800 c3         1 7TC       0.176300
     12 C6          36.0360   -19.7180    14.4950 c3         1 7TC      -0.125100
     13 C7          32.8430   -22.7890     9.3610 c          1 7TC       0.648700
     14 O1          37.7340   -19.8510    12.7930 oh         1 7TC      -0.659000
     15 O2          32.9110   -23.9550     9.7500 o          1 7TC      -0.698000
     16 O3          32.5320   -22.5390     8.2000 o          1 7TC      -0.698000
     17 H1          32.2460   -19.3550    11.8600 hc         1 7TC       0.050700
     18 H2          34.0340   -17.6950    12.4180 hc         1 7TC       0.025033
     19 H3          34.8340   -18.0690    10.8710 hc         1 7TC       0.025033
     20 H4          33.2150   -17.3630    10.8930 hc         1 7TC       0.025033
     21 H7          35.8440   -22.4810    13.4480 h4         1 7TC      -0.029800
     22 H8          32.9120   -18.4950     8.7840 ha         1 7TC       0.166500
     23 H9          32.8440   -20.1330     7.9510 ha         1 7TC       0.166500
     24 H10         35.8400   -20.5020    11.0670 hc         1 7TC       0.090700
     25 H11         33.7190   -20.5950    13.2730 h1         1 7TC       0.049700
     26 H13         36.0800   -18.6460    12.6430 h1         1 7TC       0.027700
     27 H14         36.6470   -18.9840    15.0340 hc         1 7TC       0.036700
     28 H15         34.9870   -19.4780    14.7020 hc         1 7TC       0.036700
     29 H16         36.2550   -20.7090    14.9110 hc         1 7TC       0.036700
     30 H17         38.1900   -19.1170    13.2610 ho         1 7TC       0.428000
@<TRIPOS>BOND
     1     1     2 1   
     2     1     6 1   
     3     1     9 1   
     4     1    17 1   
     5     2    18 1   
     6     2    19 1   
     7     2    20 1   
     8     3     9 1   
     9     3    10 2   
    10     4     5 2   
    11     4     8 1   
    12     4    21 1   
    13     6     7 2   
    14     6    10 1   
    15     7    22 1   
    16     7    23 1   
    17     8     9 1   
    18     8    11 1   
    19     8    24 1   
    20     9    25 1   
    21    10    13 1   
    22    11    12 1   
    23    11    14 1   
    24    11    26 1   
    25    12    27 1   
    26    12    28 1   
    27    12    29 1   
    28    13    15 1   
    29    13    16 1   
    30    14    30 1   
@<TRIPOS>SUBSTRUCTURE
     1 7TC         1 TEMP              0 ****  ****    0 ROOT
