@<TRIPOS>MOLECULE
7TC
   30    30     1     0     0
SMALL
abcg2


@<TRIPOS>ATOM
      1 C11         33.3380   -19.5480    11.4380 c5         1 7TC      -0.065500
      2 C12         33.9280   -18.1530    11.3550 c3         1 7TC      -0.069100
      3 N           33.7240   -21.9090    11.4990 n2         1 7TC      -0.602900
      4 C           36.2010   -21.9870    12.3230 c          1 7TC       0.625900
      5 O           36.9020   -22.6130    11.5680 o          1 7TC      -0.518100
      6 C1          33.0450   -20.2030    10.1120 ce         1 7TC      -0.211800
      7 C13         32.7230   -19.6210     8.9610 c2         1 7TC      -0.283000
      8 C2          35.6650   -20.5990    12.0590 c3         1 7TC      -0.175700
      9 C3          34.1290   -20.6660    12.1580 c5         1 7TC       0.107500
     10 C4          33.1840   -21.6480    10.3720 ce         1 7TC       0.413600
     11 C5          36.3510   -19.6100    13.0200 c3         1 7TC       0.176300
     12 C6          35.9130   -19.7160    14.4740 c3         1 7TC      -0.125100
     13 C7          32.7650   -22.7410     9.4030 c          1 7TC       0.648700
     14 O1          37.7370   -19.8660    12.8780 oh         1 7TC      -0.659000
     15 O2          31.9670   -23.5870     9.8340 o          1 7TC      -0.698000
     16 O3          33.2830   -22.6570     8.2760 o          1 7TC      -0.698000
     17 H1          32.3810   -19.4750    11.9700 hc         1 7TC       0.050700
     18 H2          34.1000   -17.7310    12.3460 hc         1 7TC       0.025033
     19 H3          34.8670   -18.1380    10.8020 hc         1 7TC       0.025033
     20 H4          33.2360   -17.4830    10.8420 hc         1 7TC       0.025033
     21 H7          35.9120   -22.4140    13.3010 h4         1 7TC      -0.029800
     22 H8          32.6550   -18.5440     8.8680 ha         1 7TC       0.166500
     23 H9          32.5290   -20.2040     8.0720 ha         1 7TC       0.166500
     24 H10         35.9420   -20.3280    11.0340 hc         1 7TC       0.090700
     25 H11         33.8440   -20.7320    13.2110 h1         1 7TC       0.049700
     26 H13         36.1240   -18.5950    12.6770 h1         1 7TC       0.027700
     27 H14         36.4950   -19.0220    15.0830 hc         1 7TC       0.036700
     28 H15         34.8660   -19.4430    14.6000 hc         1 7TC       0.036700
     29 H16         36.0560   -20.7170    14.8830 hc         1 7TC       0.036700
     30 H17         38.2190   -19.2380    13.4260 ho         1 7TC       0.428000
@<TRIPOS>BOND
     1     1     2 1   
     2     1     6 1   
     3     1     9 1   
     4     1    17 1   
     5     2    18 1   
     6     2    19 1   
     7     2    20 1   
     8     3     9 1   
     9     3    10 2   
    10     4     5 2   
    11     4     8 1   
    12     4    21 1   
    13     6     7 2   
    14     6    10 1   
    15     7    22 1   
    16     7    23 1   
    17     8     9 1   
    18     8    11 1   
    19     8    24 1   
    20     9    25 1   
    21    10    13 1   
    22    11    12 1   
    23    11    14 1   
    24    11    26 1   
    25    12    27 1   
    26    12    28 1   
    27    12    29 1   
    28    13    15 1   
    29    13    16 1   
    30    14    30 1   
@<TRIPOS>SUBSTRUCTURE
     1 7TC         1 TEMP              0 ****  ****    0 ROOT
