@<TRIPOS>MOLECULE
7TD
   44    44     1     0     0
SMALL
No Charge or Current Charge


@<TRIPOS>ATOM
      1 C1           3.2600     0.1710    -0.3220 c3         1 7TD       0.033700
      2 C2           3.8530    -1.2540    -0.5570 c          1 7TD       0.574100
      3 C3           3.8810     0.9220     0.9160 c3         1 7TD       0.166200
      4 O1           3.1580    -2.2610    -0.6610 o          1 7TD      -0.588100
      5 O2          -4.7280     0.1000    -0.2510 os         1 7TD      -0.335100
      6 O3           1.3090     1.8880    -1.5690 o          1 7TD      -0.608100
      7 C11         -0.5760     0.6900    -0.6940 ca         1 7TD      -0.195600
      8 C12         -1.5170     1.5290    -1.3310 ca         1 7TD      -0.032000
      9 C13         -2.8960     1.3130    -1.1690 ca         1 7TD      -0.185000
     10 C15         -7.9770    -0.7740     0.4090 c1         1 7TD      -0.090100
     11 C16         -9.4370    -0.6660     0.3270 c3         1 7TD      -0.011000
     12 C4           3.2270     2.3100     1.1280 c3         1 7TD      -0.107600
     13 C5           3.7450     0.0880     2.2140 c3         1 7TD      -0.107600
     14 N1           5.3150     1.1740     0.6920 n8         1 7TD      -1.028200
     15 C6          -6.7700    -0.8410     0.4600 c1         1 7TD      -0.163100
     16 C7          -5.3080    -0.9480     0.5440 c3         1 7TD       0.258700
     17 C8          -3.3630     0.2600    -0.3710 ca         1 7TD       0.166100
     18 C9          -2.4350    -0.5840     0.2720 ca         1 7TD      -0.185000
     19 C10         -1.0540    -0.3720     0.1120 ca         1 7TD      -0.032000
     20 N2           1.7740     0.0880    -0.2690 ns         1 7TD      -0.489900
     21 N3           5.2360    -1.3040    -0.6590 ns         1 7TD      -0.371400
     22 O4           5.9510    -2.5640    -0.5760 oh         1 7TD      -0.442100
     23 H1           3.5340     0.7430    -1.2170 h1         1 7TD       0.100700
     24 H2          -1.1840     2.3550    -1.9570 ha         1 7TD       0.129500
     25 H3          -3.6070     1.9670    -1.6660 ha         1 7TD       0.127000
     26 H4          -9.8970    -0.9970     1.2650 hc         1 7TD       0.055700
     27 H5          -9.7320     0.3740     0.1400 hc         1 7TD       0.055700
     28 H6          -9.8200    -1.2890    -0.4900 hc         1 7TD       0.055700
     29 H7           3.7260     2.8640     1.9320 hc         1 7TD       0.047033
     30 H8           3.2820     2.9150     0.2150 hc         1 7TD       0.047033
     31 H9           2.1710     2.2120     1.4070 hc         1 7TD       0.047033
     32 H10          4.2760    -0.8680     2.1370 hc         1 7TD       0.047033
     33 H11          4.1550     0.6290     3.0750 hc         1 7TD       0.047033
     34 H12          2.6910    -0.1280     2.4290 hc         1 7TD       0.047033
     35 H13          5.4350     2.1510     0.3950 hn         1 7TD       0.414000
     36 H14          5.7970     1.1590     1.6000 hn         1 7TD       0.414000
     37 H16         -5.0010    -1.9350     0.1730 h1         1 7TD       0.052700
     38 H17         -5.0030    -0.8560     1.5940 h1         1 7TD       0.052700
     39 H18         -2.7630    -1.4090     0.8980 ha         1 7TD       0.127000
     40 H19         -0.3720    -1.0440     0.6280 ha         1 7TD       0.129500
     41 H20          1.3630    -0.6940     0.2240 hn         1 7TD       0.328500
     42 H21          5.7350    -0.4700    -0.3280 hn         1 7TD       0.372500
     43 H22          6.6160    -2.5000    -1.3020 ho         1 7TD       0.450000
     44 C14          0.9020     0.9550    -0.8910 c          1 7TD       0.626700
@<TRIPOS>BOND
     1     1     2 1   
     2     1     3 1   
     3     1    20 1   
     4     1    23 1   
     5     2     4 2   
     6     2    21 1   
     7     3    12 1   
     8     3    13 1   
     9     3    14 1   
    10     5    16 1   
    11     5    17 1   
    12     6    44 2   
    13     7     8 ar  
    14     7    19 ar  
    15     7    44 1   
    16     8     9 ar  
    17     8    24 1   
    18     9    17 ar  
    19     9    25 1   
    20    10    11 1   
    21    10    15 3   
    22    11    26 1   
    23    11    27 1   
    24    11    28 1   
    25    12    29 1   
    26    12    30 1   
    27    12    31 1   
    28    13    32 1   
    29    13    33 1   
    30    13    34 1   
    31    14    35 1   
    32    14    36 1   
    33    15    16 1   
    34    16    37 1   
    35    16    38 1   
    36    17    18 ar  
    37    18    19 ar  
    38    18    39 1   
    39    19    40 1   
    40    20    41 1   
    41    20    44 1   
    42    21    22 1   
    43    21    42 1   
    44    22    43 1   
@<TRIPOS>SUBSTRUCTURE
     1 7TD         1 TEMP              0 ****  ****    0 ROOT
