@<TRIPOS>MOLECULE
7TD
   44    44     1     0     0
SMALL
bcc


@<TRIPOS>ATOM
      1 C1           3.1640     0.2430    -0.1760 c3         1 7TD       0.033700
      2 C2           3.5720    -1.2420    -0.2580 c          1 7TD       0.641100
      3 C3           3.9070     1.0350     0.9420 c3         1 7TD       0.166200
      4 O1           2.7540    -2.1430    -0.2050 o          1 7TD      -0.588100
      5 O2          -4.6200     0.1380    -0.2760 os         1 7TD      -0.311900
      6 O3           1.3140     1.7290    -1.7350 o          1 7TD      -0.608100
      7 C11         -0.5360     0.6860    -0.6850 ca         1 7TD      -0.195600
      8 C12         -1.4560     1.6830    -1.0190 ca         1 7TD      -0.050000
      9 C13         -2.8100     1.4760    -0.8670 ca         1 7TD      -0.203000
     10 C15         -7.7960    -0.8630     0.3580 c1         1 7TD      -0.090100
     11 C16         -9.2430    -0.7520     0.4370 c3         1 7TD      -0.011000
     12 C4           3.3120     2.4380     1.0610 c3         1 7TD      -0.107600
     13 C5           3.7920     0.3150     2.2830 c3         1 7TD      -0.107600
     14 N1           5.3200     1.0870     0.5580 n8         1 7TD      -0.917800
     15 C6          -6.5980    -0.9470     0.2890 c1         1 7TD      -0.163100
     16 C7          -5.1520    -1.0820     0.2180 c3         1 7TD       0.235500
     17 C8          -3.2840     0.2490    -0.3940 ca         1 7TD       0.166100
     18 C9          -2.3800    -0.7640    -0.0860 ca         1 7TD      -0.203000
     19 C10         -1.0190    -0.5350    -0.2300 ca         1 7TD      -0.050000
     20 N2           1.7380     0.2980    -0.0330 ns         1 7TD      -0.556900
     21 N3           4.8910    -1.4180    -0.4480 ns         1 7TD      -0.438400
     22 O4           5.4000    -2.6860    -0.3350 oh         1 7TD      -0.403100
     23 H1           3.4180     0.7140    -1.1300 h1         1 7TD       0.100700
     24 H2          -1.1050     2.6360    -1.3910 ha         1 7TD       0.147500
     25 H3          -3.5140     2.2610    -1.1130 ha         1 7TD       0.145000
     26 H4          -9.6090    -1.0910     1.4050 hc         1 7TD       0.055700
     27 H5          -9.5560     0.2840     0.3060 hc         1 7TD       0.055700
     28 H6          -9.7260    -1.3490    -0.3360 hc         1 7TD       0.055700
     29 H7           3.8830     3.0100     1.7950 hc         1 7TD       0.047033
     30 H8           3.3580     2.9740     0.1110 hc         1 7TD       0.047033
     31 H9           2.2730     2.4220     1.3900 hc         1 7TD       0.047033
     32 H10          4.2640    -0.6680     2.2620 hc         1 7TD       0.047033
     33 H11          4.2780     0.8960     3.0680 hc         1 7TD       0.047033
     34 H12          2.7490     0.1890     2.5750 hc         1 7TD       0.047033
     35 H13          5.4570     1.7630    -0.1870 hn         1 7TD       0.358800
     36 H14          5.8820     1.4080     1.3380 hn         1 7TD       0.358800
     37 H16         -4.8870    -1.9160    -0.4410 h1         1 7TD       0.052700
     38 H17         -4.7480    -1.3080     1.2110 h1         1 7TD       0.052700
     39 H18         -2.7070    -1.7350     0.2580 ha         1 7TD       0.145000
     40 H19         -0.3410    -1.3510    -0.0110 ha         1 7TD       0.147500
     41 H20          1.3260    -0.3020     0.6640 hn         1 7TD       0.328500
     42 H21          5.5100    -0.6500    -0.1530 hn         1 7TD       0.372500
     43 H22          5.5590    -2.9840    -1.2390 ho         1 7TD       0.411000
     44 C14          0.9170     0.9530    -0.8760 c          1 7TD       0.693700
@<TRIPOS>BOND
     1     1     2 1   
     2     1     3 1   
     3     1    20 1   
     4     1    23 1   
     5     2     4 2   
     6     2    21 1   
     7     3    12 1   
     8     3    13 1   
     9     3    14 1   
    10     5    16 1   
    11     5    17 1   
    12     6    44 2   
    13     7     8 ar  
    14     7    19 ar  
    15     7    44 1   
    16     8     9 ar  
    17     8    24 1   
    18     9    17 ar  
    19     9    25 1   
    20    10    11 1   
    21    10    15 3   
    22    11    26 1   
    23    11    27 1   
    24    11    28 1   
    25    12    29 1   
    26    12    30 1   
    27    12    31 1   
    28    13    32 1   
    29    13    33 1   
    30    13    34 1   
    31    14    35 1   
    32    14    36 1   
    33    15    16 1   
    34    16    37 1   
    35    16    38 1   
    36    17    18 ar  
    37    18    19 ar  
    38    18    39 1   
    39    19    40 1   
    40    20    41 1   
    41    20    44 1   
    42    21    22 1   
    43    21    42 1   
    44    22    43 1   
@<TRIPOS>SUBSTRUCTURE
     1 7TD         1 TEMP              0 ****  ****    0 ROOT
