@<TRIPOS>MOLECULE
7TG
   58    61     1     0     0
SMALL
abcg2


@<TRIPOS>ATOM
      1 C10          1.5430    38.9370   -21.6650 c3         1 7TG       0.151900
      2 C15         -8.5470    35.1960   -20.6670 c5         1 7TG       0.157500
      3 C17         -9.9210    33.6440   -19.3820 c3         1 7TG       0.145100
      4 C20         -8.0030    38.3070   -21.3760 c6         1 7TG      -0.079400
      5 C21         -6.7700    39.1260   -21.7560 c6         1 7TG      -0.075700
      6 C22         -6.4280    40.1210   -20.6320 c6         1 7TG       0.252300
      7 C28         -6.3100    39.4640   -19.2500 c6         1 7TG      -0.086400
      8 O01         -5.9700    37.6360   -23.4180 oh         1 7TG      -0.672000
      9 C02         -5.6170    38.1910   -22.1360 c6         1 7TG       0.143300
     10 C03         -5.3480    37.1160   -21.0620 c6         1 7TG       0.157500
     11 C05         -2.9670    36.6450   -21.7940 ca         1 7TG      -0.097300
     12 C06         -2.2090    37.2320   -20.7830 ca         1 7TG      -0.072000
     13 C07         -0.9640    37.8010   -21.0320 ca         1 7TG      -0.162000
     14 C08         -0.4490    37.7900   -22.3290 ca         1 7TG       0.121100
     15 O09          0.7580    38.3170   -22.6820 os         1 7TG      -0.360100
     16 C11         -1.1910    37.2020   -23.3550 ca         1 7TG      -0.162000
     17 C12         -2.4290    36.6390   -23.0830 ca         1 7TG      -0.072000
     18 N13         -6.5490    36.4910   -20.4940 n3         1 7TG      -0.720600
     19 C14         -7.1580    35.4110   -21.2850 c5         1 7TG       0.167800
     20 N16         -8.5790    33.9730   -19.8560 n7         1 7TG      -0.848400
     21 C18         -8.7830    36.4550   -19.8090 c5         1 7TG      -0.068400
     22 C19         -7.6550    37.4300   -20.1650 c5         1 7TG       0.192200
     23 O23         -7.4540    41.1150   -20.5940 os         1 7TG      -0.584400
     24 P24         -7.0600    42.6930   -21.0160 p5         1 7TG       1.262900
     25 O25         -6.0350    43.1610   -19.9840 o          1 7TG      -0.926833
     26 O26         -8.4160    43.3790   -20.9110 o          1 7TG      -0.926833
     27 O27         -6.4940    42.6230   -22.4340 o          1 7TG      -0.926833
     28 C29         -7.3390    38.3550   -18.9800 c6         1 7TG      -0.044400
     29 H102         2.4460    39.2910   -22.1570 h1         1 7TG       0.036033
     30 H103         1.0130    39.7830   -21.2200 h1         1 7TG       0.036033
     31 H101         1.8080    38.2230   -20.8820 h1         1 7TG       0.036033
     32 H151        -9.2990    35.1380   -21.4660 h1         1 7TG       0.013700
     33 H172        -9.9050    32.6750   -18.8830 h1         1 7TG       0.019367
     34 H171       -10.2560    34.3900   -18.6590 h1         1 7TG       0.019367
     35 H173       -10.6670    33.6060   -20.1920 h1         1 7TG       0.019367
     36 H201        -8.8280    38.9730   -21.1220 hc         1 7TG       0.048700
     37 H202        -8.3290    37.6930   -22.2170 hc         1 7TG       0.048700
     38 H211        -6.9790    39.7330   -22.6390 hc         1 7TG       0.113700
     39 H221        -5.4740    40.6010   -20.8660 h1         1 7TG       0.046700
     40 H282        -5.3000    39.0730   -19.1280 hc         1 7TG       0.032200
     41 H281        -6.4150    40.2520   -18.5020 hc         1 7TG       0.032200
     42 H011        -5.2310    37.1070   -23.7400 ho         1 7TG       0.405000
     43 H021        -4.7020    38.7830   -22.2490 h1         1 7TG       0.050700
     44 H031        -4.8680    37.6500   -20.2450 h1         1 7TG       0.077700
     45 H041        -4.6820    35.5080   -22.3750 hc         1 7TG       0.041200
     46 H042        -4.2490    35.3290   -20.6890 hc         1 7TG       0.041200
     47 H061        -2.5930    37.2480   -19.7690 ha         1 7TG       0.113000
     48 H071        -0.4110    38.2430   -20.2170 ha         1 7TG       0.113500
     49 H111        -0.7840    37.1930   -24.3590 ha         1 7TG       0.113500
     50 H121        -2.9850    36.1810   -23.8930 ha         1 7TG       0.113000
     51 H141        -6.5550    34.5040   -21.2200 h1         1 7TG       0.030700
     52 H142        -7.2540    35.6700   -22.3440 h1         1 7TG       0.030700
     53 H2          -8.2490    33.2060   -20.4330 hn         1 7TG       0.387000
     54 H181        -9.7640    36.9040   -19.9670 hc         1 7TG       0.047200
     55 H182        -8.7030    36.1820   -18.7550 hc         1 7TG       0.047200
     56 H291        -8.2880    38.8170   -18.6920 hc         1 7TG       0.027200
     57 H292        -7.0150    37.7460   -18.1310 hc         1 7TG       0.027200
     58 C04         -4.3260    36.0560   -21.5020 c3         1 7TG      -0.035100
@<TRIPOS>BOND
     1     1    15 1   
     2     1    29 1   
     3     1    30 1   
     4     1    31 1   
     5     2    19 1   
     6     2    20 1   
     7     2    21 1   
     8     2    32 1   
     9     3    20 1   
    10     3    33 1   
    11     3    34 1   
    12     3    35 1   
    13     4     5 1   
    14     4    22 1   
    15     4    36 1   
    16     4    37 1   
    17     5     6 1   
    18     5     9 1   
    19     5    38 1   
    20     6     7 1   
    21     6    23 1   
    22     6    39 1   
    23     7    28 1   
    24     7    40 1   
    25     7    41 1   
    26     8     9 1   
    27     8    42 1   
    28     9    10 1   
    29     9    43 1   
    30    10    18 1   
    31    10    44 1   
    32    10    58 1   
    33    11    12 ar  
    34    11    17 ar  
    35    11    58 1   
    36    12    13 ar  
    37    12    47 1   
    38    13    14 ar  
    39    13    48 1   
    40    14    15 1   
    41    14    16 ar  
    42    16    17 ar  
    43    16    49 1   
    44    17    50 1   
    45    18    19 1   
    46    18    22 1   
    47    19    51 1   
    48    19    52 1   
    49    20    53 1   
    50    21    22 1   
    51    21    54 1   
    52    21    55 1   
    53    22    28 1   
    54    23    24 1   
    55    24    25 1   
    56    24    26 1   
    57    24    27 1   
    58    28    56 1   
    59    28    57 1   
    60    45    58 1   
    61    46    58 1   
@<TRIPOS>SUBSTRUCTURE
     1 7TG         1 TEMP              0 ****  ****    0 ROOT
