@<TRIPOS>MOLECULE
7TG
   58    61     1     0     0
SMALL
No Charge or Current Charge


@<TRIPOS>ATOM
      1 C10          1.6720    39.1140   -21.9630 c3         1 7TG       0.151900
      2 C15         -8.6400    35.2820   -20.7220 c5         1 7TG       0.157500
      3 C17        -10.3800    33.7020   -19.8190 c3         1 7TG       0.145100
      4 C20         -7.9900    38.2430   -21.2430 c6         1 7TG      -0.079400
      5 C21         -6.7560    39.0990   -21.6370 c6         1 7TG      -0.075700
      6 C22         -6.4520    40.1340   -20.5060 c6         1 7TG       0.252300
      7 C28         -6.2900    39.4960   -19.0970 c6         1 7TG      -0.086400
      8 O01         -5.7680    37.5840   -23.2920 oh         1 7TG      -0.672000
      9 C02         -5.5450    38.1690   -21.9940 c6         1 7TG       0.143300
     10 C03         -5.2610    37.0730   -20.8850 c6         1 7TG       0.157500
     11 C05         -2.8400    36.6450   -21.7050 ca         1 7TG      -0.097300
     12 C06         -2.0900    37.3750   -20.7620 ca         1 7TG      -0.072000
     13 C07         -0.8600    37.9530   -21.1220 ca         1 7TG      -0.162000
     14 C08         -0.3640    37.8010   -22.4350 ca         1 7TG       0.121100
     15 O09          0.8360    38.3450   -22.8460 os         1 7TG      -0.360100
     16 C11         -1.1080    37.0660   -23.3710 ca         1 7TG      -0.162000
     17 C12         -2.3370    36.4890   -23.0120 ca         1 7TG      -0.072000
     18 N13         -6.5120    36.4450   -20.3380 n3         1 7TG      -0.720600
     19 C14         -7.1320    35.3580   -21.1690 c5         1 7TG       0.167800
     20 N16         -8.9680    33.9260   -20.1840 n7         1 7TG      -0.848400
     21 C18         -8.7200    36.3320   -19.5790 c5         1 7TG      -0.068400
     22 C19         -7.6390    37.3730   -19.9920 c5         1 7TG       0.192200
     23 O23         -7.4690    41.1540   -20.4520 os         1 7TG      -0.584400
     24 P24         -7.2320    42.5570   -21.2070 p5         1 7TG       1.262900
     25 O25         -6.0460    43.2430   -20.6250 o          1 7TG      -0.926833
     26 O26         -8.4340    43.4120   -21.0100 o          1 7TG      -0.926833
     27 O27         -7.0260    42.3330   -22.6630 o          1 7TG      -0.926833
     28 C29         -7.3030    38.3470   -18.8030 c6         1 7TG      -0.044400
     29 H102         2.5730    39.4510   -22.4900 h1         1 7TG       0.036033
     30 H103         1.1400    40.0020   -21.5970 h1         1 7TG       0.036033
     31 H101         1.9870    38.5120   -21.1010 h1         1 7TG       0.036033
     32 H151        -9.3000    35.5440   -21.5610 h1         1 7TG       0.013700
     33 H172       -10.5210    32.6810   -19.4420 h1         1 7TG       0.019367
     34 H171       -10.7010    34.4000   -19.0340 h1         1 7TG       0.019367
     35 H173       -11.0340    33.8390   -20.6910 h1         1 7TG       0.019367
     36 H201        -8.8480    38.8900   -21.0160 hc         1 7TG       0.048700
     37 H202        -8.3030    37.6300   -22.0970 hc         1 7TG       0.048700
     38 H211        -7.0070    39.6670   -22.5410 hc         1 7TG       0.113700
     39 H221        -5.4960    40.6230   -20.7490 h1         1 7TG       0.046700
     40 H282        -5.2590    39.1640   -18.9420 hc         1 7TG       0.032200
     41 H281        -6.4180    40.2760   -18.3340 hc         1 7TG       0.032200
     42 H011        -5.0010    37.0000   -23.4660 ho         1 7TG       0.405000
     43 H021        -4.6490    38.8050   -22.0570 h1         1 7TG       0.050700
     44 H031        -4.7690    37.5880   -20.0580 h1         1 7TG       0.077700
     45 H041        -4.5540    35.4010   -22.1310 hc         1 7TG       0.041200
     46 H042        -4.0100    35.3320   -20.4780 hc         1 7TG       0.041200
     47 H061        -2.4570    37.4940   -19.7450 ha         1 7TG       0.113000
     48 H071        -0.3080    38.5110   -20.3710 ha         1 7TG       0.113500
     49 H111        -0.7280    36.9430   -24.3820 ha         1 7TG       0.113500
     50 H121        -2.8950    35.9190   -23.7520 ha         1 7TG       0.113000
     51 H141        -6.6070    34.4050   -21.0190 h1         1 7TG       0.030700
     52 H142        -7.0810    35.5860   -22.2410 h1         1 7TG       0.030700
     53 H2          -8.7180    33.2240   -20.8910 hn         1 7TG       0.387000
     54 H181        -9.7170    36.7780   -19.4950 hc         1 7TG       0.047200
     55 H182        -8.4790    35.8900   -18.6040 hc         1 7TG       0.047200
     56 H291        -8.2450    38.8090   -18.4750 hc         1 7TG       0.027200
     57 H292        -6.9480    37.7690   -17.9390 hc         1 7TG       0.027200
     58 C04         -4.1790    36.0250   -21.3110 c3         1 7TG      -0.035100
@<TRIPOS>BOND
     1     1    15 1   
     2     1    29 1   
     3     1    30 1   
     4     1    31 1   
     5     2    19 1   
     6     2    20 1   
     7     2    21 1   
     8     2    32 1   
     9     3    20 1   
    10     3    33 1   
    11     3    34 1   
    12     3    35 1   
    13     4     5 1   
    14     4    22 1   
    15     4    36 1   
    16     4    37 1   
    17     5     6 1   
    18     5     9 1   
    19     5    38 1   
    20     6     7 1   
    21     6    23 1   
    22     6    39 1   
    23     7    28 1   
    24     7    40 1   
    25     7    41 1   
    26     8     9 1   
    27     8    42 1   
    28     9    10 1   
    29     9    43 1   
    30    10    18 1   
    31    10    44 1   
    32    10    58 1   
    33    11    12 ar  
    34    11    17 ar  
    35    11    58 1   
    36    12    13 ar  
    37    12    47 1   
    38    13    14 ar  
    39    13    48 1   
    40    14    15 1   
    41    14    16 ar  
    42    16    17 ar  
    43    16    49 1   
    44    17    50 1   
    45    18    19 1   
    46    18    22 1   
    47    19    51 1   
    48    19    52 1   
    49    20    53 1   
    50    21    22 1   
    51    21    54 1   
    52    21    55 1   
    53    22    28 1   
    54    23    24 1   
    55    24    25 1   
    56    24    26 1   
    57    24    27 1   
    58    28    56 1   
    59    28    57 1   
    60    45    58 1   
    61    46    58 1   
@<TRIPOS>SUBSTRUCTURE
     1 7TG         1 TEMP              0 ****  ****    0 ROOT
