@<TRIPOS>MOLECULE
7TH
   37    38     1     0     0
SMALL
No Charge or Current Charge


@<TRIPOS>ATOM
      1 C10         -8.6950   -11.0220    -9.3730 ca         1 7TH      -0.071300
      2 C13         -7.9820   -13.5410    -8.3230 ca         1 7TH      -0.118000
      3 C15         -8.9960   -11.3460    -8.0350 ca         1 7TH      -0.107000
      4 C17        -14.0730    -6.9410   -11.7680 ca         1 7TH       0.004000
      5 C04        -13.4090    -9.2210   -13.3090 ca         1 7TH      -0.258600
      6 C05        -13.1990    -9.2120   -11.9150 ca         1 7TH       0.416000
      7 C07        -11.5690   -10.2840   -10.2880 c3         1 7TH       0.231800
      8 C08        -10.2730    -9.7450   -10.9320 c3         1 7TH      -0.103400
      9 C09         -9.0860    -9.6650    -9.9460 c3         1 7TH      -0.031100
     10 C11         -8.0340   -11.9690   -10.1810 ca         1 7TH      -0.107000
     11 C12         -7.6780   -13.2240    -9.6570 ca         1 7TH      -0.110000
     12 C14         -8.6410   -12.6010    -7.5120 ca         1 7TH      -0.110000
     13 C16        -13.5330    -8.0810   -11.1580 ca         1 7TH      -0.274000
     14 C18        -14.2860    -6.9270   -13.1600 ca         1 7TH      -0.301200
     15 C19        -13.9520    -8.0690   -13.9230 ca         1 7TH       0.029000
     16 N06        -12.6660   -10.3140   -11.2640 nu         1 7TH      -0.964200
     17 N20        -14.8620    -5.7170   -13.8250 no         1 7TH       0.713200
     18 O01        -12.9810   -11.5170   -13.6550 o          1 7TH      -0.710500
     19 O03        -12.8670   -10.2180   -15.3600 o          1 7TH      -0.710500
     20 O21        -15.1370    -4.7370   -13.1210 o          1 7TH      -0.454000
     21 O22        -15.0390    -5.7500   -15.0490 o          1 7TH      -0.454000
     22 H1          -7.7070   -14.5120    -7.9180 ha         1 7TH       0.105000
     23 H2          -9.5080   -10.6270    -7.4000 ha         1 7TH       0.111000
     24 H3         -14.3220    -6.0790   -11.1510 ha         1 7TH       0.118000
     25 H4         -11.8390    -9.6550    -9.4280 h1         1 7TH       0.040200
     26 H5         -11.3890   -11.3000    -9.9110 h1         1 7TH       0.040200
     27 H6          -9.9970   -10.3810   -11.7810 hc         1 7TH       0.054200
     28 H7         -10.4580    -8.7410   -11.3330 hc         1 7TH       0.054200
     29 H8          -8.2260    -9.2250   -10.4670 hc         1 7TH       0.042700
     30 H9          -9.3390    -8.9650    -9.1400 hc         1 7TH       0.042700
     31 H10         -7.7960   -11.7310   -11.2150 ha         1 7TH       0.111000
     32 H11         -7.1680   -13.9500   -10.2860 ha         1 7TH       0.107000
     33 H12         -8.8760   -12.8460    -6.4780 ha         1 7TH       0.107000
     34 H13        -13.3810    -8.0800   -10.0840 ha         1 7TH       0.099000
     35 H14        -14.1160    -8.0680   -15.0000 ha         1 7TH       0.163000
     36 H15        -12.6400   -11.1100   -11.9210 hn         1 7TH       0.569000
     37 C02        -13.0550   -10.4090   -14.1680 c          1 7TH       0.729600
@<TRIPOS>BOND
     1     1     3 ar  
     2     1     9 1   
     3     1    10 ar  
     4     2    11 ar  
     5     2    12 ar  
     6     2    22 1   
     7     3    12 ar  
     8     3    23 1   
     9     4    13 ar  
    10     4    14 ar  
    11     4    24 1   
    12     5     6 ar  
    13     5    15 ar  
    14     5    37 1   
    15     6    13 ar  
    16     6    16 1   
    17     7     8 1   
    18     7    16 1   
    19     7    25 1   
    20     7    26 1   
    21     8     9 1   
    22     8    27 1   
    23     8    28 1   
    24     9    29 1   
    25     9    30 1   
    26    10    11 ar  
    27    10    31 1   
    28    11    32 1   
    29    12    33 1   
    30    13    34 1   
    31    14    15 ar  
    32    14    17 1   
    33    15    35 1   
    34    16    36 1   
    35    17    20 1   
    36    17    21 1   
    37    18    37 1   
    38    19    37 1   
@<TRIPOS>SUBSTRUCTURE
     1 7TH         1 TEMP              0 ****  ****    0 ROOT
