@<TRIPOS>MOLECULE
7TH
   37    38     1     0     0
SMALL
abcg2


@<TRIPOS>ATOM
      1 C10         -8.7260   -10.9970    -9.1420 ca         1 7TH      -0.071300
      2 C13         -8.0560   -13.5680    -8.2470 ca         1 7TH      -0.118000
      3 C15         -9.4100   -11.5840    -8.0790 ca         1 7TH      -0.107000
      4 C17        -13.5170    -6.8310   -11.9960 ca         1 7TH       0.004000
      5 C04        -13.7170    -9.2680   -13.3910 ca         1 7TH      -0.258600
      6 C05        -12.8920    -9.1710   -12.2250 ca         1 7TH       0.416000
      7 C07        -11.3460   -10.2770   -10.6440 c3         1 7TH       0.231800
      8 C08         -9.9680    -9.6760   -10.9100 c3         1 7TH      -0.103400
      9 C09         -9.0940    -9.6310    -9.6540 c3         1 7TH      -0.031100
     10 C11         -7.6990   -11.7200    -9.7480 ca         1 7TH      -0.107000
     11 C12         -7.3650   -12.9920    -9.3060 ca         1 7TH      -0.110000
     12 C14         -9.0810   -12.8590    -7.6350 ca         1 7TH      -0.110000
     13 C16        -12.8270    -7.9260   -11.5490 ca         1 7TH      -0.274000
     14 C18        -14.3070    -6.9330   -13.1430 ca         1 7TH      -0.301200
     15 C19        -14.3990    -8.1490   -13.8160 ca         1 7TH       0.029000
     16 N06        -12.2230   -10.2410   -11.7860 nu         1 7TH      -0.964200
     17 N20        -15.0180    -5.7940   -13.6220 no         1 7TH       0.713200
     18 O01        -13.1730   -11.5370   -13.8470 o          1 7TH      -0.710500
     19 O03        -14.7100   -10.5460   -15.1110 o          1 7TH      -0.710500
     20 O21        -14.9270    -4.7490   -13.0040 o          1 7TH      -0.454000
     21 O22        -15.6900    -5.9040   -14.6300 o          1 7TH      -0.454000
     22 H1          -7.7960   -14.5590    -7.9010 ha         1 7TH       0.105000
     23 H2         -10.2080   -11.0360    -7.5920 ha         1 7TH       0.111000
     24 H3         -13.4380    -5.8990   -11.4550 ha         1 7TH       0.118000
     25 H4         -11.8130    -9.7700    -9.7930 h1         1 7TH       0.040200
     26 H5         -11.2460   -11.3230   -10.3530 h1         1 7TH       0.040200
     27 H6          -9.4660   -10.2520   -11.6930 hc         1 7TH       0.054200
     28 H7         -10.0790    -8.6590   -11.2950 hc         1 7TH       0.054200
     29 H8          -8.1840    -9.0730    -9.8840 hc         1 7TH       0.042700
     30 H9          -9.6160    -9.0690    -8.8740 hc         1 7TH       0.042700
     31 H10         -7.1510   -11.2780   -10.5720 ha         1 7TH       0.111000
     32 H11         -6.5610   -13.5350    -9.7870 ha         1 7TH       0.107000
     33 H12         -9.6250   -13.2970    -6.8080 ha         1 7TH       0.107000
     34 H13        -12.2170    -7.8240   -10.6620 ha         1 7TH       0.099000
     35 H14        -15.0180    -8.2400   -14.6970 ha         1 7TH       0.163000
     36 H15        -12.3290   -11.0540   -12.3980 hn         1 7TH       0.569000
     37 C02        -13.8840   -10.5580   -14.1870 c          1 7TH       0.729600
@<TRIPOS>BOND
     1     1     3 ar  
     2     1     9 1   
     3     1    10 ar  
     4     2    11 ar  
     5     2    12 ar  
     6     2    22 1   
     7     3    12 ar  
     8     3    23 1   
     9     4    13 ar  
    10     4    14 ar  
    11     4    24 1   
    12     5     6 ar  
    13     5    15 ar  
    14     5    37 1   
    15     6    13 ar  
    16     6    16 1   
    17     7     8 1   
    18     7    16 1   
    19     7    25 1   
    20     7    26 1   
    21     8     9 1   
    22     8    27 1   
    23     8    28 1   
    24     9    29 1   
    25     9    30 1   
    26    10    11 ar  
    27    10    31 1   
    28    11    32 1   
    29    12    33 1   
    30    13    34 1   
    31    14    15 ar  
    32    14    17 1   
    33    15    35 1   
    34    16    36 1   
    35    17    20 1   
    36    17    21 1   
    37    18    37 1   
    38    19    37 1   
@<TRIPOS>SUBSTRUCTURE
     1 7TH         1 TEMP              0 ****  ****    0 ROOT
