@<TRIPOS>MOLECULE
7TI
   28    28     1     0     0
SMALL
No Charge or Current Charge


@<TRIPOS>ATOM
      1 Cl          32.3280    35.4640    53.4830 cl         1 7TI      -0.110000
      2 O3          30.0150    38.2880    53.6520 o          1 7TI      -0.540500
      3 O           28.9220    38.8060    55.9010 o          1 7TI      -0.540500
      4 N2          31.2100    38.0270    55.7410 n8         1 7TI      -1.047100
      5 C           29.2950    36.2270    55.2430 ca         1 7TI      -0.319500
      6 C7          28.4940    35.8780    56.3480 ca         1 7TI       0.119000
      7 C6          28.1080    34.5400    56.5550 ca         1 7TI      -0.381500
      8 S1          27.1370    34.1570    57.9950 sy         1 7TI       1.136600
      9 O2          27.8610    33.2070    58.8370 o          1 7TI      -0.540500
     10 N1          25.8940    33.2820    57.3920 n8         1 7TI      -1.029100
     11 O1          26.5180    35.3620    58.5390 o          1 7TI      -0.540500
     12 C5          28.5260    33.5540    55.6600 ca         1 7TI       0.475000
     13 N           28.1410    32.2580    55.7930 nv         1 7TI      -1.076000
     14 C4          29.3270    33.8950    54.5690 ca         1 7TI      -0.210000
     15 C1          29.7250    35.2220    54.3450 ca         1 7TI       0.133200
     16 C2          30.5860    35.4950    53.1610 ce         1 7TI       0.065800
     17 C3          30.1010    35.7090    51.9170 c2         1 7TI       0.258000
     18 Cl1         31.1070    36.0020    50.5200 cl         1 7TI      -0.112500
     19 Cl2         28.3950    35.7180    51.5440 cl         1 7TI      -0.112500
     20 H1          31.7460    38.4220    54.9720 hn         1 7TI       0.491000
     21 H2          31.0780    38.8380    56.3430 hn         1 7TI       0.491000
     22 H3          28.1780    36.6480    57.0530 ha         1 7TI       0.159000
     23 H4          25.4110    33.0080    58.2460 hn         1 7TI       0.478000
     24 H5          25.2890    34.0160    57.0300 hn         1 7TI       0.478000
     25 H6          27.3000    32.1210    56.3560 hn         1 7TI       0.496500
     26 H7          28.2290    31.6480    54.9860 hn         1 7TI       0.496500
     27 H8          29.6490    33.1210    53.8780 ha         1 7TI       0.125000
     28 S           29.7430    37.9540    55.0460 sy         1 7TI       1.158600
@<TRIPOS>BOND
     1     1    16 1   
     2     2    28 2   
     3     3    28 2   
     4     4    20 1   
     5     4    21 1   
     6     4    28 1   
     7     5     6 ar  
     8     5    15 ar  
     9     5    28 1   
    10     6     7 ar  
    11     6    22 1   
    12     7     8 1   
    13     7    12 ar  
    14     8     9 2   
    15     8    10 1   
    16     8    11 2   
    17    10    23 1   
    18    10    24 1   
    19    12    13 1   
    20    12    14 ar  
    21    13    25 1   
    22    13    26 1   
    23    14    15 ar  
    24    14    27 1   
    25    15    16 1   
    26    16    17 2   
    27    17    18 1   
    28    17    19 1   
@<TRIPOS>SUBSTRUCTURE
     1 7TI         1 TEMP              0 ****  ****    0 ROOT
