@<TRIPOS>MOLECULE
7TI
   28    28     1     0     0
SMALL
bcc


@<TRIPOS>ATOM
      1 CL          32.0710    34.8710    52.8880 cl         1 7TI      -0.034400
      2 O3          31.5960    37.5610    54.5690 o          1 7TI      -0.611300
      3 O           29.3330    38.4250    53.9250 o          1 7TI      -0.611300
      4 N2          29.9780    38.4590    56.3300 n8         1 7TI      -0.936700
      5 C           29.5260    36.1050    55.1530 ca         1 7TI      -0.319500
      6 C7          28.8250    35.8040    56.3020 ca         1 7TI       0.101000
      7 C6          28.3090    34.5330    56.5090 ca         1 7TI      -0.381500
      8 S1          27.5600    34.2130    58.0770 sy         1 7TI       1.278200
      9 O2          28.2300    33.0960    58.7240 o          1 7TI      -0.611300
     10 N1          26.0830    33.6370    57.6040 n8         1 7TI      -0.918700
     11 O1          27.4770    35.4740    58.7970 o          1 7TI      -0.611300
     12 C5          28.4600    33.5140    55.5440 ca         1 7TI       0.336600
     13 N           27.9840    32.2650    55.6870 nv         1 7TI      -0.827200
     14 C4          29.1770    33.8540    54.3780 ca         1 7TI      -0.228000
     15 C1          29.6980    35.1100    54.1770 ca         1 7TI       0.133200
     16 C2          30.4250    35.3580    52.9120 ce         1 7TI      -0.009800
     17 C3          29.8370    35.8430    51.8210 c2         1 7TI       0.106800
     18 CL1         30.6600    36.0950    50.3480 cl         1 7TI      -0.036900
     19 CL2         28.1750    36.2410    51.8060 cl         1 7TI      -0.036900
     20 H1          30.7860    38.4200    56.9390 hn         1 7TI       0.435800
     21 H2          29.5860    39.3900    56.2550 hn         1 7TI       0.435800
     22 H3          28.6840    36.5670    57.0540 ha         1 7TI       0.177000
     23 H4          25.6220    33.1200    58.3480 hn         1 7TI       0.422800
     24 H5          25.4710    34.3620    57.2390 hn         1 7TI       0.422800
     25 H6          27.2340    32.0790    56.3340 hn         1 7TI       0.441300
     26 H7          28.0310    31.6450    54.8950 hn         1 7TI       0.441300
     27 H8          29.3090    33.0990    53.6120 ha         1 7TI       0.143000
     28 S           30.1840    37.7270    54.8750 sy         1 7TI       1.300200
@<TRIPOS>BOND
     1     1    16 1   
     2     2    28 2   
     3     3    28 2   
     4     4    20 1   
     5     4    21 1   
     6     4    28 1   
     7     5     6 ar  
     8     5    15 ar  
     9     5    28 1   
    10     6     7 ar  
    11     6    22 1   
    12     7     8 1   
    13     7    12 ar  
    14     8     9 2   
    15     8    10 1   
    16     8    11 2   
    17    10    23 1   
    18    10    24 1   
    19    12    13 1   
    20    12    14 ar  
    21    13    25 1   
    22    13    26 1   
    23    14    15 ar  
    24    14    27 1   
    25    15    16 1   
    26    16    17 2   
    27    17    18 1   
    28    17    19 1   
@<TRIPOS>SUBSTRUCTURE
     1 7TI         1 TEMP              0 ****  ****    0 ROOT
