@<TRIPOS>MOLECULE
7TJ
   62    65     1     0     0
SMALL
No Charge or Current Charge


@<TRIPOS>ATOM
      1 C5          -3.1240     3.4490     2.3680 c3         1 7TJ      -0.039800
      2 C2          -4.2500     3.2950     1.3500 ca         1 7TJ      -0.166300
      3 C1          -5.2370     4.2980     1.2640 ca         1 7TJ       0.109900
      4 N2          -6.2320     4.2460     0.3570 nb         1 7TJ      -0.155000
      5 C4          -6.2290     3.1840    -0.4710 ca         1 7TJ       0.213000
      6 Cl          -7.5130     3.1110    -1.6670 cl         1 7TJ      -0.127000
      7 N1          -5.3400     2.1730    -0.4770 nb         1 7TJ      -0.162000
      8 C3          -4.3500     2.2020     0.4400 cp         1 7TJ       0.190500
      9 C6          -3.3910     1.0520     0.4080 cp         1 7TJ      -0.159500
     10 C11         -3.0260     0.3580     1.5870 ca         1 7TJ      -0.072500
     11 C10         -2.1320    -0.7250     1.5470 ca         1 7TJ      -0.107500
     12 C7          -2.8580     0.5840    -0.8170 ca         1 7TJ      -0.072500
     13 C8          -1.9610    -0.4970    -0.8530 ca         1 7TJ      -0.107500
     14 C9          -1.5310    -1.1260     0.3350 ca         1 7TJ      -0.030000
     15 N3          -0.7190    -2.3220     0.2390 n          1 7TJ      -0.239400
     16 C12         -1.0030    -3.5370     0.9340 c          1 7TJ       0.641700
     17 O1          -1.8740    -3.6130     1.7930 o          1 7TJ      -0.572100
     18 C14         -0.2570    -4.7890     0.5620 ca         1 7TJ      -0.222600
     19 C22          0.4580    -5.4760     1.5630 ca         1 7TJ      -0.003000
     20 C23          1.1560    -6.6530     1.2480 ca         1 7TJ      -0.189000
     21 C24          1.1260    -7.1570    -0.0570 ca         1 7TJ       0.199100
     22 O2           1.8010    -8.2980    -0.3570 oh         1 7TJ      -0.525100
     23 C25          0.3920    -6.4990    -1.0510 ca         1 7TJ      -0.315000
     24 C26         -0.3050    -5.3230    -0.7410 ca         1 7TJ       0.208100
     25 O3          -1.0580    -4.7360    -1.7080 oh         1 7TJ      -0.525100
     26 C13          0.4930    -2.2440    -0.6220 c3         1 7TJ       0.163300
     27 C15          1.2500    -0.9220    -0.5090 ca         1 7TJ      -0.105300
     28 C20          1.8010    -0.5280     0.7260 ca         1 7TJ      -0.093000
     29 C19          2.4890     0.6920     0.8390 ca         1 7TJ      -0.097500
     30 C16          1.4010    -0.0840    -1.6300 ca         1 7TJ      -0.093000
     31 C17          2.0890     1.1360    -1.5170 ca         1 7TJ      -0.097500
     32 C18          2.6340     1.5320    -0.2810 ca         1 7TJ      -0.116300
     33 C21          3.3810     2.8510    -0.1590 c3         1 7TJ       0.146300
     34 N4           4.8040     2.6710    -0.4330 ns         1 7TJ      -0.481900
     35 C27          5.7400     3.6870    -0.4000 c          1 7TJ       0.549100
     36 O4           5.4160     4.8380    -0.1290 o          1 7TJ      -0.548100
     37 C28          7.1990     3.2580    -0.7280 c3         1 7TJ       0.218000
     38 F1           8.0620     4.3030    -0.6770 f          1 7TJ      -0.102667
     39 F2           7.6470     2.3260     0.1460 f          1 7TJ      -0.102667
     40 F3           7.2890     2.7240    -1.9700 f          1 7TJ      -0.102667
     41 H51C        -3.3610     2.9280     3.3030 hc         1 7TJ       0.051700
     42 H52C        -2.1760     3.0500     1.9860 hc         1 7TJ       0.051700
     43 H53C        -2.9510     4.5030     2.6150 hc         1 7TJ       0.051700
     44 H1          -5.2270     5.1640     1.9240 h4         1 7TJ       0.030100
     45 H11         -3.4560     0.6490     2.5420 ha         1 7TJ       0.124500
     46 H7          -3.1420     1.0640    -1.7510 ha         1 7TJ       0.124500
     47 H10         -1.8790    -1.2220     2.4790 ha         1 7TJ       0.126000
     48 H8          -1.5970    -0.8410    -1.8180 ha         1 7TJ       0.126000
     49 H131         1.2030    -3.0360    -0.3570 h1         1 7TJ       0.061700
     50 H132         0.1950    -2.4070    -1.6650 h1         1 7TJ       0.061700
     51 H22          0.4830    -5.0900     2.5810 ha         1 7TJ       0.129000
     52 H23          1.7180    -7.1740     2.0180 ha         1 7TJ       0.138000
     53 H2           1.6580    -8.4920    -1.3070 ho         1 7TJ       0.469000
     54 H25          0.3540    -6.9060    -2.0580 ha         1 7TJ       0.117000
     55 H3          -1.0090    -5.2960    -2.5110 ho         1 7TJ       0.470000
     56 H20          1.6920    -1.1660     1.6000 ha         1 7TJ       0.119500
     57 H16          0.9820    -0.3740    -2.5920 ha         1 7TJ       0.119500
     58 H19          2.9090     0.9840     1.8000 ha         1 7TJ       0.119500
     59 H17          2.1970     1.7750    -2.3910 ha         1 7TJ       0.119500
     60 H211         2.9680     3.5810    -0.8680 h1         1 7TJ       0.069700
     61 H212         3.2590     3.2570     0.8550 h1         1 7TJ       0.069700
     62 H4           5.1350     1.7410    -0.6650 hn         1 7TJ       0.337500
@<TRIPOS>BOND
     1     1     2 1   
     2     1    41 1   
     3     1    42 1   
     4     1    43 1   
     5     2     3 ar  
     6     2     8 ar  
     7     3     4 ar  
     8     3    44 1   
     9     4     5 ar  
    10     5     6 1   
    11     5     7 ar  
    12     7     8 ar  
    13     8     9 1   
    14     9    10 ar  
    15     9    12 ar  
    16    10    11 ar  
    17    10    45 1   
    18    11    14 ar  
    19    11    47 1   
    20    12    13 ar  
    21    12    46 1   
    22    13    14 ar  
    23    13    48 1   
    24    14    15 1   
    25    15    16 1   
    26    15    26 1   
    27    16    17 2   
    28    16    18 1   
    29    18    19 ar  
    30    18    24 ar  
    31    19    20 ar  
    32    19    51 1   
    33    20    21 ar  
    34    20    52 1   
    35    21    22 1   
    36    21    23 ar  
    37    22    53 1   
    38    23    24 ar  
    39    23    54 1   
    40    24    25 1   
    41    25    55 1   
    42    26    27 1   
    43    26    49 1   
    44    26    50 1   
    45    27    28 ar  
    46    27    30 ar  
    47    28    29 ar  
    48    28    56 1   
    49    29    32 ar  
    50    29    58 1   
    51    30    31 ar  
    52    30    57 1   
    53    31    32 ar  
    54    31    59 1   
    55    32    33 1   
    56    33    34 1   
    57    33    60 1   
    58    33    61 1   
    59    34    35 1   
    60    34    62 1   
    61    35    36 2   
    62    35    37 1   
    63    37    38 1   
    64    37    39 1   
    65    37    40 1   
@<TRIPOS>SUBSTRUCTURE
     1 7TJ         1 TEMP              0 ****  ****    0 ROOT
