@<TRIPOS>MOLECULE
7TJ
   62    65     1     0     0
SMALL
abcg2


@<TRIPOS>ATOM
      1 C5          -1.8780     3.7710     0.9750 c3         1 7TJ      -0.039800
      2 C2          -3.3190     3.5810     0.6180 ca         1 7TJ      -0.166300
      3 C1          -4.1820     4.6700     0.6000 ca         1 7TJ       0.109900
      4 N2          -5.4630     4.5930     0.2600 nb         1 7TJ      -0.155000
      5 C4          -5.8720     3.3960    -0.0870 ca         1 7TJ       0.213000
      6 CL          -7.5320     3.2670    -0.5630 cl         1 7TJ      -0.127000
      7 N1          -5.1780     2.2880    -0.1200 nb         1 7TJ      -0.162000
      8 C3          -3.8970     2.3610     0.2480 cp         1 7TJ       0.190500
      9 C6          -3.1400     1.0950     0.1880 cp         1 7TJ      -0.159500
     10 C11         -2.2920     0.7060     1.2230 ca         1 7TJ      -0.072500
     11 C10         -1.5760    -0.4760     1.1390 ca         1 7TJ      -0.107500
     12 C7          -3.2840     0.2630    -0.9200 ca         1 7TJ      -0.072500
     13 C8          -2.5580    -0.9130    -1.0110 ca         1 7TJ      -0.107500
     14 C9          -1.6960    -1.2790     0.0130 ca         1 7TJ      -0.030000
     15 N3          -0.8850    -2.4360    -0.1390 n          1 7TJ      -0.239400
     16 C12         -1.1690    -3.5360     0.6000 c          1 7TJ       0.641700
     17 O1          -2.0770    -3.5420     1.4160 o          1 7TJ      -0.572100
     18 C14         -0.3190    -4.7470     0.4030 ca         1 7TJ      -0.222600
     19 C22          0.4220    -5.2360     1.4750 ca         1 7TJ      -0.003000
     20 C23          1.1830    -6.3850     1.3720 ca         1 7TJ      -0.189000
     21 C24          1.1810    -7.0920     0.1690 ca         1 7TJ       0.199100
     22 O2           1.9280    -8.2060     0.0980 oh         1 7TJ      -0.525100
     23 C25          0.4200    -6.6420    -0.9050 ca         1 7TJ      -0.315000
     24 C26         -0.3290    -5.4760    -0.7870 ca         1 7TJ       0.208100
     25 O3          -1.0890    -5.0100    -1.7930 oh         1 7TJ      -0.525100
     26 C13          0.2920    -2.2590    -0.9890 c3         1 7TJ       0.163300
     27 C15          1.1950    -1.1890    -0.4340 ca         1 7TJ      -0.105300
     28 C20          2.0740    -1.4830     0.6020 ca         1 7TJ      -0.093000
     29 C19          2.8590    -0.4860     1.1630 ca         1 7TJ      -0.097500
     30 C16          1.1180     0.1210    -0.8960 ca         1 7TJ      -0.093000
     31 C17          1.8940     1.1190    -0.3310 ca         1 7TJ      -0.097500
     32 C18          2.7740     0.8260     0.7080 ca         1 7TJ      -0.116300
     33 C21          3.6110     1.9060     1.3440 c3         1 7TJ       0.146300
     34 N4           4.5040     2.5570     0.4040 ns         1 7TJ      -0.481900
     35 C27          4.2570     3.7480    -0.1290 c          1 7TJ       0.549100
     36 O4           3.2840     4.4490     0.0720 o          1 7TJ      -0.548100
     37 C28          5.3220     4.2770    -1.1040 c3         1 7TJ       0.218000
     38 F1           5.7190     5.4890    -0.7230 f          1 7TJ      -0.102667
     39 F2           6.4040     3.5010    -1.1910 f          1 7TJ      -0.102667
     40 F3           4.7980     4.3820    -2.3250 f          1 7TJ      -0.102667
     41 H51C        -1.6940     3.5610     2.0290 hc         1 7TJ       0.051700
     42 H52C        -1.2280     3.1200     0.3920 hc         1 7TJ       0.051700
     43 H53C        -1.5750     4.8020     0.7940 hc         1 7TJ       0.051700
     44 H1          -3.8160     5.6560     0.8650 h4         1 7TJ       0.030100
     45 H11         -2.1940     1.3190     2.1090 ha         1 7TJ       0.124500
     46 H7          -3.9510     0.5440    -1.7240 ha         1 7TJ       0.124500
     47 H10         -0.9060    -0.7590     1.9400 ha         1 7TJ       0.126000
     48 H8          -2.6520    -1.5450    -1.8850 ha         1 7TJ       0.126000
     49 H131         0.8300    -3.2020    -1.0470 h1         1 7TJ       0.061700
     50 H132        -0.0310    -2.0040    -2.0000 h1         1 7TJ       0.061700
     51 H22          0.4170    -4.6930     2.4120 ha         1 7TJ       0.129000
     52 H23          1.7690    -6.7380     2.2100 ha         1 7TJ       0.138000
     53 H2           1.8700    -8.6020    -0.7790 ho         1 7TJ       0.469000
     54 H25          0.4070    -7.2000    -1.8360 ha         1 7TJ       0.117000
     55 H3          -1.0080    -5.5710    -2.5730 ho         1 7TJ       0.470000
     56 H20          2.1510    -2.4980     0.9760 ha         1 7TJ       0.119500
     57 H16          0.4300     0.3650    -1.6970 ha         1 7TJ       0.119500
     58 H19          3.5450    -0.7300     1.9660 ha         1 7TJ       0.119500
     59 H17          1.7990     2.1350    -0.6940 ha         1 7TJ       0.119500
     60 H211         2.9740     2.6670     1.7940 h1         1 7TJ       0.069700
     61 H212         4.2180     1.4830     2.1440 h1         1 7TJ       0.069700
     62 H4           5.3310     2.0470     0.1330 hn         1 7TJ       0.337500
@<TRIPOS>BOND
     1     1     2 1   
     2     1    41 1   
     3     1    42 1   
     4     1    43 1   
     5     2     3 ar  
     6     2     8 ar  
     7     3     4 ar  
     8     3    44 1   
     9     4     5 ar  
    10     5     6 1   
    11     5     7 ar  
    12     7     8 ar  
    13     8     9 1   
    14     9    10 ar  
    15     9    12 ar  
    16    10    11 ar  
    17    10    45 1   
    18    11    14 ar  
    19    11    47 1   
    20    12    13 ar  
    21    12    46 1   
    22    13    14 ar  
    23    13    48 1   
    24    14    15 1   
    25    15    16 1   
    26    15    26 1   
    27    16    17 2   
    28    16    18 1   
    29    18    19 ar  
    30    18    24 ar  
    31    19    20 ar  
    32    19    51 1   
    33    20    21 ar  
    34    20    52 1   
    35    21    22 1   
    36    21    23 ar  
    37    22    53 1   
    38    23    24 ar  
    39    23    54 1   
    40    24    25 1   
    41    25    55 1   
    42    26    27 1   
    43    26    49 1   
    44    26    50 1   
    45    27    28 ar  
    46    27    30 ar  
    47    28    29 ar  
    48    28    56 1   
    49    29    32 ar  
    50    29    58 1   
    51    30    31 ar  
    52    30    57 1   
    53    31    32 ar  
    54    31    59 1   
    55    32    33 1   
    56    33    34 1   
    57    33    60 1   
    58    33    61 1   
    59    34    35 1   
    60    34    62 1   
    61    35    36 2   
    62    35    37 1   
    63    37    38 1   
    64    37    39 1   
    65    37    40 1   
@<TRIPOS>SUBSTRUCTURE
     1 7TJ         1 TEMP              0 ****  ****    0 ROOT
