@<TRIPOS>MOLECULE
7TK
   26    26     1     0     0
SMALL
bcc


@<TRIPOS>ATOM
      1 N           26.3820   -25.7200     3.7110 n8         1 7TK      -0.847800
      2 CA          25.1880   -25.7760     2.8710 c3         1 7TK       0.115500
      3 C           23.9330   -25.9630     3.7240 c          1 7TK       0.620100
      4 O           23.6500   -27.0610     4.1970 o          1 7TK      -0.629100
      5 CB          25.3160   -26.8980     1.8520 c3         1 7TK      -0.196400
      6 CG          26.4770   -26.6890     0.8580 c          1 7TK       0.942600
      7 OD1         27.1850   -27.6840     0.6090 o          1 7TK      -0.844300
      8 N5          23.1810   -24.8790     3.9790 n          1 7TK      -0.493800
      9 C4          21.9950   -24.9620     4.8260 c5         1 7TK       0.103000
     10 C3          21.3230   -23.6110     4.6260 c5         1 7TK      -0.096400
     11 C2          22.5030   -22.6720     4.4020 c5         1 7TK      -0.096400
     12 C1          23.4550   -23.5070     3.5520 c5         1 7TK       0.103000
     13 O1          26.5870   -25.5500     0.3570 o          1 7TK      -0.844300
     14 H1          26.3300   -24.9340     4.3480 hn         1 7TK       0.322800
     15 H2          26.4270   -26.5510     4.2890 hn         1 7TK       0.322800
     16 H4          25.1360   -24.8410     2.3130 h1         1 7TK       0.083700
     17 H5          24.3840   -26.9500     1.2760 hc         1 7TK       0.030700
     18 H6          25.4140   -27.8590     2.3630 hc         1 7TK       0.030700
     19 H7          21.3600   -25.7990     4.5340 h1         1 7TK       0.049450
     20 H8          22.2800   -25.1130     5.8720 h1         1 7TK       0.049450
     21 H9          20.7000   -23.3290     5.4740 hc         1 7TK       0.043700
     22 H10         20.6890   -23.6340     3.7380 hc         1 7TK       0.043700
     23 H11         22.9740   -22.4210     5.3550 hc         1 7TK       0.043700
     24 H12         22.2290   -21.7400     3.9090 hc         1 7TK       0.043700
     25 H13         24.4960   -23.2300     3.7180 h1         1 7TK       0.049450
     26 H14         23.2420   -23.3810     2.4870 h1         1 7TK       0.049450
@<TRIPOS>BOND
     1     1     2 1   
     2     1    14 1   
     3     1    15 1   
     4     2     3 1   
     5     2     5 1   
     6     2    16 1   
     7     3     4 2   
     8     3     8 1   
     9     5     6 1   
    10     5    17 1   
    11     5    18 1   
    12     6     7 1   
    13     6    13 1   
    14     8     9 1   
    15     8    12 1   
    16     9    10 1   
    17     9    19 1   
    18     9    20 1   
    19    10    11 1   
    20    10    21 1   
    21    10    22 1   
    22    11    12 1   
    23    11    23 1   
    24    11    24 1   
    25    12    25 1   
    26    12    26 1   
@<TRIPOS>SUBSTRUCTURE
     1 7TK         1 TEMP              0 ****  ****    0 ROOT
