@<TRIPOS>MOLECULE
7TL
   51    54     1     0     0
SMALL
No Charge or Current Charge


@<TRIPOS>ATOM
      1 C01         -0.9300     4.0720    -2.9300 c3         1 7TL       0.155900
      2 O02         -0.9930     2.6890    -2.5410 os         1 7TL      -0.443100
      3 C03          0.1760     2.0460    -2.2290 c          1 7TL       0.631300
      4 O04          1.2680     2.5880    -2.2890 o          1 7TL      -0.528000
      5 C05         -0.0490     0.6150    -1.8340 ce         1 7TL      -0.387400
      6 C06          0.9470    -0.2460    -1.4960 c2         1 7TL       0.241800
      7 N07          0.5710    -1.5390    -1.1650 nu         1 7TL      -0.752200
      8 C08         -0.7490    -1.9480    -1.0270 ce         1 7TL       0.588200
      9 N09         -1.6500    -1.3080    -1.6950 n2         1 7TL      -0.676900
     10 C10         -1.5190     0.1520    -1.7940 c6         1 7TL       0.275000
     11 C11         -2.2880     0.7900    -0.6210 ca         1 7TL      -0.068300
     12 C12         -1.6740     0.8780     0.6510 ca         1 7TL      -0.060000
     13 C13         -2.3580     1.4500     1.7360 ca         1 7TL      -0.156000
     14 C14         -3.6600     1.9370     1.5620 ca         1 7TL       0.164000
     15 C15         -4.2840     1.8540     0.3120 ca         1 7TL      -0.165000
     16 C16         -3.6070     1.2820    -0.7780 ca         1 7TL       0.161000
     17 Cl1         -4.4590     1.1960    -2.3210 cl         1 7TL      -0.202000
     18 F18         -4.3170     2.4860     2.6060 f          1 7TL      -0.188000
     19 C19         -1.1170    -2.8490     0.1040 cc         1 7TL       0.376100
     20 N20         -0.2350    -3.4060     0.9400 nd         1 7TL      -0.569000
     21 C21         -0.8920    -4.1660     1.8940 cd         1 7TL       0.280900
     22 C22         -2.2610    -4.1780     1.7800 cc         1 7TL      -0.311000
     23 S23         -2.7960    -3.2130     0.4360 ss         1 7TL       0.039600
     24 C24          2.4640    -0.0410    -1.3710 c3         1 7TL       0.224000
     25 N25          2.9140    -0.2560     0.0360 n3         1 7TL      -0.777600
     26 C26          3.2640     0.9660     0.8070 c5         1 7TL       0.149800
     27 C27          3.9930     0.4120     2.0780 c5         1 7TL       0.143000
     28 C28          4.1390    -1.1160     1.8080 c5         1 7TL      -0.109400
     29 C29          4.0620    -1.1940     0.2590 c5         1 7TL       0.069500
     30 C30          3.8670    -2.7080    -0.1770 c          1 7TL       0.729000
     31 O31          4.8590    -3.4010    -0.3680 o          1 7TL      -0.705500
     32 O32          2.7350    -3.1240    -0.4030 o          1 7TL      -0.705500
     33 F33          3.2580     0.6500     3.2390 f          1 7TL      -0.131500
     34 F34          5.2430     1.0110     2.2350 f          1 7TL      -0.131500
     35 H1          -0.5000     4.6840    -2.1260 h1         1 7TL       0.037700
     36 H2          -0.3180     4.1970    -3.8320 h1         1 7TL       0.037700
     37 H3          -1.9370     4.4530    -3.1460 h1         1 7TL       0.037700
     38 H4          -0.6640     0.5020     0.8010 ha         1 7TL       0.134000
     39 H5          -1.8800     1.5160     2.7100 ha         1 7TL       0.130000
     40 H6          -5.2950     2.2300     0.1870 ha         1 7TL       0.134000
     41 H7          -0.3170    -4.6880     2.6500 h4         1 7TL       0.043100
     42 H8          -2.9850    -4.6910     2.4000 h4         1 7TL       0.148000
     43 H9           2.9460    -0.7700    -2.0370 h1         1 7TL       0.074200
     44 H10          2.7900     0.9360    -1.7360 h1         1 7TL       0.074200
     45 H12          3.9370     1.6200     0.2340 h1         1 7TL       0.049200
     46 H13          2.3700     1.5500     1.0650 h1         1 7TL       0.049200
     47 H14          5.0740    -1.5280     2.2020 hc         1 7TL       0.078200
     48 H15          3.3170    -1.6770     2.2680 hc         1 7TL       0.078200
     49 H16          4.9820    -0.8130    -0.2070 h1         1 7TL       0.033700
     50 H18          1.2730    -2.1000    -0.6500 hn         1 7TL       0.615000
     51 H19         -1.9850     0.4420    -2.7470 h1         1 7TL       0.083700
@<TRIPOS>BOND
     1     1     2 1   
     2     1    35 1   
     3     1    36 1   
     4     1    37 1   
     5     2     3 1   
     6     3     4 2   
     7     3     5 1   
     8     5     6 2   
     9     5    10 1   
    10     6     7 1   
    11     6    24 1   
    12     7     8 1   
    13     7    50 1   
    14     8     9 2   
    15     8    19 1   
    16     9    10 1   
    17    10    11 1   
    18    10    51 1   
    19    11    12 ar  
    20    11    16 ar  
    21    12    13 ar  
    22    12    38 1   
    23    13    14 ar  
    24    13    39 1   
    25    14    15 ar  
    26    14    18 1   
    27    15    16 ar  
    28    15    40 1   
    29    16    17 1   
    30    19    20 2   
    31    19    23 1   
    32    20    21 1   
    33    21    22 2   
    34    21    41 1   
    35    22    23 1   
    36    22    42 1   
    37    24    25 1   
    38    24    43 1   
    39    24    44 1   
    40    25    26 1   
    41    25    29 1   
    42    26    27 1   
    43    26    45 1   
    44    26    46 1   
    45    27    28 1   
    46    27    33 1   
    47    27    34 1   
    48    28    29 1   
    49    28    47 1   
    50    28    48 1   
    51    29    30 1   
    52    29    49 1   
    53    30    31 1   
    54    30    32 1   
@<TRIPOS>SUBSTRUCTURE
     1 7TL         1 TEMP              0 ****  ****    0 ROOT
