@<TRIPOS>MOLECULE
7TL
   51    54     1     0     0
SMALL
abcg2


@<TRIPOS>ATOM
      1 C01         -0.5610     3.6240    -3.5200 c3         1 7TL       0.155900
      2 O02         -0.7610     2.4840    -2.6900 os         1 7TL      -0.443100
      3 C03          0.2690     1.6560    -2.5170 c          1 7TL       0.631300
      4 O04          1.3540     1.8650    -3.0190 o          1 7TL      -0.528000
      5 C05         -0.1150     0.5130    -1.6890 ce         1 7TL      -0.387400
      6 C06          0.7880    -0.3190    -1.1110 c2         1 7TL       0.241800
      7 N07          0.3470    -1.4270    -0.4410 nu         1 7TL      -0.752200
      8 C08         -0.9510    -1.8200    -0.6030 ce         1 7TL       0.588200
      9 N09         -1.8760    -1.1170    -1.1190 n2         1 7TL      -0.676900
     10 C10         -1.5880     0.2700    -1.4310 c6         1 7TL       0.275000
     11 C11         -2.1460     1.1150    -0.2930 ca         1 7TL      -0.068300
     12 C12         -1.3210     1.6800     0.6720 ca         1 7TL      -0.060000
     13 C13         -1.8190     2.4100     1.7410 ca         1 7TL      -0.156000
     14 C14         -3.1850     2.5750     1.8360 ca         1 7TL       0.164000
     15 C15         -4.0540     2.0410     0.9060 ca         1 7TL      -0.165000
     16 C16         -3.5180     1.3130    -0.1450 ca         1 7TL       0.161000
     17 CL1         -4.6280     0.6550    -1.3010 cl         1 7TL      -0.202000
     18 F18         -3.6930     3.2760     2.8590 f          1 7TL      -0.188000
     19 C19         -1.3090    -3.1750    -0.1680 cc         1 7TL       0.376100
     20 N20         -0.4980    -4.0600     0.3110 nd         1 7TL      -0.569000
     21 C21         -1.1610    -5.2070     0.6240 cd         1 7TL       0.280900
     22 C22         -2.5000    -5.1880     0.3800 cc         1 7TL      -0.311000
     23 S23         -2.9570    -3.6730    -0.2660 ss         1 7TL       0.039600
     24 C24          2.2900    -0.1650    -1.0670 c3         1 7TL       0.224000
     25 N25          2.7460    -0.2620     0.2940 n3         1 7TL      -0.777600
     26 C26          2.7330     0.9610     1.0720 c5         1 7TL       0.149800
     27 C27          4.0150     0.8840     1.8870 c5         1 7TL       0.143000
     28 C28          4.3500    -0.5850     1.9510 c5         1 7TL      -0.109400
     29 C29          3.9280    -1.0600     0.5610 c5         1 7TL       0.069500
     30 C30          3.6810    -2.5780     0.5300 c          1 7TL       0.729000
     31 O31          4.6830    -3.2800     0.7420 o          1 7TL      -0.705500
     32 O32          2.5190    -2.9860     0.3100 o          1 7TL      -0.705500
     33 F33          3.9040     1.4770     3.1070 f          1 7TL      -0.131500
     34 F34          5.0200     1.5620     1.2470 f          1 7TL      -0.131500
     35 H1           0.1960     4.2910    -3.1070 h1         1 7TL       0.037700
     36 H2          -0.2730     3.3400    -4.5320 h1         1 7TL       0.037700
     37 H3          -1.5150     4.1410    -3.5510 h1         1 7TL       0.037700
     38 H4          -0.2500     1.5560     0.5860 ha         1 7TL       0.134000
     39 H5          -1.1570     2.8410     2.4800 ha         1 7TL       0.130000
     40 H6          -5.1220     2.1870     1.0010 ha         1 7TL       0.134000
     41 H7          -0.6200    -6.0470     1.0350 h4         1 7TL       0.043100
     42 H8          -3.2180    -5.9750     0.5490 h4         1 7TL       0.148000
     43 H9           2.7310    -0.9730    -1.6560 h1         1 7TL       0.074200
     44 H10          2.5960     0.7690    -1.5380 h1         1 7TL       0.074200
     45 H12          2.7200     1.8630     0.4480 h1         1 7TL       0.049200
     46 H13          1.8700     1.0140     1.7440 h1         1 7TL       0.049200
     47 H14          5.3970    -0.7770     2.1770 hc         1 7TL       0.078200
     48 H15          3.7320    -1.0540     2.7210 hc         1 7TL       0.078200
     49 H16          4.7410    -0.8440    -0.1510 h1         1 7TL       0.033700
     50 H18          1.0730    -2.0610    -0.0490 hn         1 7TL       0.615000
     51 H19         -2.1570     0.5160    -2.3290 h1         1 7TL       0.083700
@<TRIPOS>BOND
     1     1     2 1   
     2     1    35 1   
     3     1    36 1   
     4     1    37 1   
     5     2     3 1   
     6     3     4 2   
     7     3     5 1   
     8     5     6 2   
     9     5    10 1   
    10     6     7 1   
    11     6    24 1   
    12     7     8 1   
    13     7    50 1   
    14     8     9 2   
    15     8    19 1   
    16     9    10 1   
    17    10    11 1   
    18    10    51 1   
    19    11    12 ar  
    20    11    16 ar  
    21    12    13 ar  
    22    12    38 1   
    23    13    14 ar  
    24    13    39 1   
    25    14    15 ar  
    26    14    18 1   
    27    15    16 ar  
    28    15    40 1   
    29    16    17 1   
    30    19    20 2   
    31    19    23 1   
    32    20    21 1   
    33    21    22 2   
    34    21    41 1   
    35    22    23 1   
    36    22    42 1   
    37    24    25 1   
    38    24    43 1   
    39    24    44 1   
    40    25    26 1   
    41    25    29 1   
    42    26    27 1   
    43    26    45 1   
    44    26    46 1   
    45    27    28 1   
    46    27    33 1   
    47    27    34 1   
    48    28    29 1   
    49    28    47 1   
    50    28    48 1   
    51    29    30 1   
    52    29    49 1   
    53    30    31 1   
    54    30    32 1   
@<TRIPOS>SUBSTRUCTURE
     1 7TL         1 TEMP              0 ****  ****    0 ROOT
