@<TRIPOS>MOLECULE
7TM
   90    94     1     0     0
SMALL
No Charge or Current Charge


@<TRIPOS>ATOM
      1 CAA         12.4490    -0.3020    -1.8630 c3         1 7TM      -0.089100
      2 CAV         11.6210     0.1270    -0.6360 c3         1 7TM      -0.074400
      3 CAW         10.2190     0.6570    -1.0090 c3         1 7TM      -0.076400
      4 CAX          9.3870     1.0830     0.2200 c3         1 7TM      -0.072400
      5 CAY          7.9860     1.6120    -0.1560 c3         1 7TM      -0.096400
      6 CAZ          7.1520     2.0320     1.0730 c3         1 7TM       0.120000
      7 NBF          5.8360     2.5490     0.6960 ns         1 7TM      -0.499900
      8 CBI          4.7870     1.7790     0.2740 c          1 7TM       0.647100
      9 OAE          4.7890     0.5590     0.2300 o          1 7TM      -0.546000
     10 OBH          3.7180     2.5850     0.0190 os         1 7TM      -0.372200
     11 CBM          2.5300     2.1380    -0.5100 ca         1 7TM       0.116100
     12 CAM          2.5070     1.2970    -1.6390 ca         1 7TM      -0.108000
     13 CAK          1.2790     0.8560    -2.1630 ca         1 7TM      -0.095000
     14 CAL          1.3260     2.5630     0.0700 ca         1 7TM      -0.108000
     15 CAJ          0.0980     2.1190    -0.4510 ca         1 7TM      -0.095000
     16 CBK          0.0690     1.2580    -1.5640 ca         1 7TM      -0.088300
     17 CBA         -1.2670     0.7450    -2.0910 c3         1 7TM      -0.045100
     18 CBR         -1.8630    -0.3540    -1.1790 c3         1 7TM       0.228500
     19 CBD         -0.9830    -1.6420    -1.2320 c3         1 7TM       0.220800
     20 NBS         -1.4530    -2.7530    -0.3740 nh         1 7TM      -0.827400
     21 CBC         -0.7720    -2.9410     0.9330 c3         1 7TM       0.312100
     22 CBP         -0.3380    -1.6730     1.6240 cc         1 7TM      -0.259300
     23 CAS         -1.0820    -0.8850     2.4620 cd         1 7TM       0.270900
     24 NBE         -0.3450     0.1930     2.9080 nd         1 7TM      -0.685000
     25 CAT          0.8510     0.0610     2.3540 cc         1 7TM       0.407400
     26 NBU          0.9140    -1.0780     1.5780 na         1 7TM      -0.157500
     27 CAC          2.1090    -1.5540     0.8620 c3         1 7TM       0.049900
     28 CBQ         -2.5650    -3.5570    -0.7570 ca         1 7TM       0.379000
     29 CAR         -2.6510    -4.8700    -0.2420 ca         1 7TM      -0.204000
     30 CAI         -3.7240    -5.7170    -0.5560 ca         1 7TM      -0.019000
     31 CBJ         -4.7390    -5.2680    -1.4090 ca         1 7TM      -0.077000
     32 CAH         -5.8410    -6.1290    -1.7370 cg         1 7TM       0.339000
     33 NAD         -6.7400    -6.8230    -2.0100 n1         1 7TM      -0.472000
     34 CAU         -4.6650    -3.9760    -1.9530 ca         1 7TM      -0.010000
     35 CBN         -3.5900    -3.1120    -1.6460 ca         1 7TM      -0.178300
     36 CBB         -3.6040    -1.7430    -2.3370 c3         1 7TM       0.292100
     37 NBT         -3.3010    -0.5870    -1.4820 n3         1 7TM      -0.789500
     38 SBV         -4.4250    -0.2460    -0.2530 sy         1 7TM       1.204600
     39 OAF         -5.7300    -0.1700    -0.9190 o          1 7TM      -0.540000
     40 OAG         -4.1740    -1.1570     0.8680 o          1 7TM      -0.540000
     41 CBO         -3.9790     1.4380     0.1930 ca         1 7TM      -0.335500
     42 CAP         -4.1740     2.4740    -0.7390 ca         1 7TM       0.024000
     43 CAN         -3.8020     3.7880    -0.4110 ca         1 7TM      -0.199000
     44 CBL         -3.2410     4.0780     0.8410 ca         1 7TM       0.195100
     45 OBG         -2.8860     5.3860     1.1000 os         1 7TM      -0.334100
     46 CAB         -2.2750     5.7830     2.3400 c3         1 7TM       0.145900
     47 CAO         -3.0590     3.0400     1.7800 ca         1 7TM      -0.199000
     48 CAQ         -3.4290     1.7240     1.4560 ca         1 7TM       0.024000
     49 H1          12.6010     0.5440    -2.5440 hc         1 7TM       0.033033
     50 H2          13.4340    -0.6710    -1.5500 hc         1 7TM       0.033033
     51 H3          11.9420    -1.1040    -2.4130 hc         1 7TM       0.033033
     52 H4          11.5180    -0.7300     0.0410 hc         1 7TM       0.038200
     53 H5          12.1700     0.9030    -0.0890 hc         1 7TM       0.038200
     54 H6          10.3270     1.5130    -1.6870 hc         1 7TM       0.038700
     55 H7           9.6750    -0.1210    -1.5610 hc         1 7TM       0.038700
     56 H8           9.2790     0.2260     0.8970 hc         1 7TM       0.042700
     57 H9           9.9300     1.8610     0.7720 hc         1 7TM       0.042700
     58 H10          8.0920     2.4740    -0.8260 hc         1 7TM       0.046700
     59 H11          7.4460     0.8360    -0.7120 hc         1 7TM       0.046700
     60 H12          7.0180     1.1700     1.7410 h1         1 7TM       0.052700
     61 H13          7.6870     2.8120     1.6300 h1         1 7TM       0.052700
     62 H14          5.6750     3.5480     0.7140 hn         1 7TM       0.333500
     63 H15          3.4360     0.9830    -2.1080 ha         1 7TM       0.130500
     64 H16          1.2710     0.1950    -3.0270 ha         1 7TM       0.122500
     65 H17          1.3430     3.2260     0.9310 ha         1 7TM       0.130500
     66 H18         -0.8300     2.4400     0.0160 ha         1 7TM       0.122500
     67 H19         -1.9720     1.5810    -2.1550 hc         1 7TM       0.055200
     68 H20         -1.1670     0.3580    -3.1120 hc         1 7TM       0.055200
     69 H21         -1.7680     0.0190    -0.1500 h1         1 7TM       0.099700
     70 H22         -0.9180    -1.9930    -2.2700 h1         1 7TM       0.055700
     71 H23          0.0450    -1.3740    -0.9660 h1         1 7TM       0.055700
     72 H24         -1.4520    -3.4500     1.6300 h1         1 7TM       0.052200
     73 H25          0.0940    -3.6030     0.8010 h1         1 7TM       0.052200
     74 H26         -2.1100    -1.0370     2.7680 h4         1 7TM       0.053100
     75 H27          1.6990     0.7250     2.4810 h5         1 7TM       0.064100
     76 H28          2.1440    -1.1070    -0.1380 h1         1 7TM       0.058033
     77 H29          3.0100    -1.2610     1.4150 h1         1 7TM       0.058033
     78 H30          2.0900    -2.6470     0.7720 h1         1 7TM       0.058033
     79 H31         -1.8720    -5.2600     0.4040 ha         1 7TM       0.116000
     80 H32         -3.7590    -6.7220    -0.1380 ha         1 7TM       0.122000
     81 H33         -5.4510    -3.6430    -2.6290 ha         1 7TM       0.119000
     82 H34         -2.9060    -1.7770    -3.1840 h1         1 7TM       0.053200
     83 H35         -4.5910    -1.5900    -2.7930 h1         1 7TM       0.053200
     84 H36         -4.5990     2.2620    -1.7200 ha         1 7TM       0.134500
     85 H37         -3.9440     4.5860    -1.1350 ha         1 7TM       0.127500
     86 H38         -2.9370     5.5670     3.1890 h1         1 7TM       0.046033
     87 H39         -1.3240     5.2570     2.4920 h1         1 7TM       0.046033
     88 H40         -2.0700     6.8610     2.3350 h1         1 7TM       0.046033
     89 H41         -2.6300     3.2320     2.7580 ha         1 7TM       0.127500
     90 H42         -3.2840     0.9360     2.1920 ha         1 7TM       0.134500
@<TRIPOS>BOND
     1     1     2 1   
     2     1    49 1   
     3     1    50 1   
     4     1    51 1   
     5     2     3 1   
     6     2    52 1   
     7     2    53 1   
     8     3     4 1   
     9     3    54 1   
    10     3    55 1   
    11     4     5 1   
    12     4    56 1   
    13     4    57 1   
    14     5     6 1   
    15     5    58 1   
    16     5    59 1   
    17     6     7 1   
    18     6    60 1   
    19     6    61 1   
    20     7     8 1   
    21     7    62 1   
    22     8     9 2   
    23     8    10 1   
    24    10    11 1   
    25    11    12 ar  
    26    11    14 ar  
    27    12    13 ar  
    28    12    63 1   
    29    13    16 ar  
    30    13    64 1   
    31    14    15 ar  
    32    14    65 1   
    33    15    16 ar  
    34    15    66 1   
    35    16    17 1   
    36    17    18 1   
    37    17    67 1   
    38    17    68 1   
    39    18    19 1   
    40    18    37 1   
    41    18    69 1   
    42    19    20 1   
    43    19    70 1   
    44    19    71 1   
    45    20    21 1   
    46    20    28 1   
    47    21    22 1   
    48    21    72 1   
    49    21    73 1   
    50    22    23 2   
    51    22    26 1   
    52    23    24 1   
    53    23    74 1   
    54    24    25 2   
    55    25    26 1   
    56    25    75 1   
    57    26    27 1   
    58    27    76 1   
    59    27    77 1   
    60    27    78 1   
    61    28    29 ar  
    62    28    35 ar  
    63    29    30 ar  
    64    29    79 1   
    65    30    31 ar  
    66    30    80 1   
    67    31    32 1   
    68    31    34 ar  
    69    32    33 3   
    70    34    35 ar  
    71    34    81 1   
    72    35    36 1   
    73    36    37 1   
    74    36    82 1   
    75    36    83 1   
    76    37    38 1   
    77    38    39 2   
    78    38    40 2   
    79    38    41 1   
    80    41    42 ar  
    81    41    48 ar  
    82    42    43 ar  
    83    42    84 1   
    84    43    44 ar  
    85    43    85 1   
    86    44    45 1   
    87    44    47 ar  
    88    45    46 1   
    89    46    86 1   
    90    46    87 1   
    91    46    88 1   
    92    47    48 ar  
    93    47    89 1   
    94    48    90 1   
@<TRIPOS>SUBSTRUCTURE
     1 7TM         1 TEMP              0 ****  ****    0 ROOT
