@<TRIPOS>MOLECULE
7TM
   90    94     1     0     0
SMALL
abcg2


@<TRIPOS>ATOM
      1 CAA         13.9580     0.7050    -0.5470 c3         1 7TM      -0.089100
      2 CAV         12.6400    -0.0380    -0.3760 c3         1 7TM      -0.074400
      3 CAW         11.4340     0.8930    -0.3960 c3         1 7TM      -0.076400
      4 CAX         10.1070     0.1620    -0.2350 c3         1 7TM      -0.072400
      5 CAY          8.9100     1.1030    -0.2760 c3         1 7TM      -0.096400
      6 CAZ          7.5950     0.3610    -0.1080 c3         1 7TM       0.120000
      7 NBF          6.4820     1.2860    -0.1960 ns         1 7TM      -0.499900
      8 CBI          5.2150     0.8700    -0.2740 c          1 7TM       0.647100
      9 OAE          4.8440    -0.2820    -0.2790 o          1 7TM      -0.546000
     10 OBH          4.3720     1.9310    -0.3510 os         1 7TM      -0.372200
     11 CBM          3.0260     1.6900    -0.5170 ca         1 7TM       0.116100
     12 CAM          2.5270     1.2960    -1.7470 ca         1 7TM      -0.108000
     13 CAK          1.1570     1.1490    -1.9090 ca         1 7TM      -0.095000
     14 CAL          2.1740     1.9280     0.5480 ca         1 7TM      -0.108000
     15 CAJ          0.8070     1.7820     0.3700 ca         1 7TM      -0.095000
     16 CBK          0.2780     1.3920    -0.8580 ca         1 7TM      -0.088300
     17 CBA         -1.2070     1.1990    -1.0080 c3         1 7TM      -0.045100
     18 CBR         -1.6770    -0.0290    -0.2210 c3         1 7TM       0.228500
     19 CBD         -1.0690    -1.3120    -0.7770 c3         1 7TM       0.220800
     20 NBS         -1.5530    -2.4900    -0.0940 nh         1 7TM      -0.827400
     21 CBC         -0.6540    -3.1950     0.8170 c3         1 7TM       0.312100
     22 CBP          0.2990    -2.2890     1.5150 cc         1 7TM      -0.259300
     23 CAS          0.1310    -1.4900     2.6140 cd         1 7TM       0.270900
     24 NBE          1.2790    -0.8160     2.8990 nd         1 7TM      -0.685000
     25 CAT          2.1360    -1.1940     1.9840 cc         1 7TM       0.407400
     26 NBU          1.6020    -2.0860     1.1260 na         1 7TM      -0.157500
     27 CAC          2.2860    -2.6970     0.0090 c3         1 7TM       0.049900
     28 CBQ         -2.6990    -3.1050    -0.5200 ca         1 7TM       0.379000
     29 CAR         -2.8740    -4.4890    -0.3240 ca         1 7TM      -0.204000
     30 CAI         -4.0110    -5.1450    -0.7420 ca         1 7TM      -0.019000
     31 CBJ         -5.0270    -4.4390    -1.3830 ca         1 7TM      -0.077000
     32 CAH         -6.2060    -5.0990    -1.8190 cg         1 7TM       0.339000
     33 NAD         -7.1630    -5.6380    -2.1740 n1         1 7TM      -0.472000
     34 CAU         -4.8770    -3.0630    -1.5680 ca         1 7TM      -0.010000
     35 CBN         -3.7490    -2.3870    -1.1510 ca         1 7TM      -0.178300
     36 CBB         -3.7350    -0.8850    -1.3300 c3         1 7TM       0.292100
     37 NBT         -3.1240    -0.1840    -0.2180 n3         1 7TM      -0.789500
     38 SBV         -4.0520     0.2450     1.0660 sy         1 7TM       1.204600
     39 OAF         -5.1640    -0.6890     1.1350 o          1 7TM      -0.540000
     40 OAG         -3.1710     0.4130     2.2120 o          1 7TM      -0.540000
     41 CBO         -4.7180     1.8300     0.6660 ca         1 7TM      -0.335500
     42 CAP         -5.9410     1.9280     0.0070 ca         1 7TM       0.024000
     43 CAN         -6.4320     3.1680    -0.3430 ca         1 7TM      -0.199000
     44 CBL         -5.7130     4.3280    -0.0350 ca         1 7TM       0.195100
     45 OBG         -6.2680     5.4850    -0.4090 os         1 7TM      -0.334100
     46 CAB         -5.5850     6.6940    -0.1280 c3         1 7TM       0.145900
     47 CAO         -4.4910     4.2230     0.6320 ca         1 7TM      -0.199000
     48 CAQ         -4.0010     2.9750     0.9810 ca         1 7TM       0.024000
     49 H1          14.1020     1.4410     0.2460 hc         1 7TM       0.033033
     50 H2          14.8100     0.0240    -0.5250 hc         1 7TM       0.033033
     51 H3          13.9870     1.2390    -1.4990 hc         1 7TM       0.033033
     52 H4          12.5330    -0.7830    -1.1700 hc         1 7TM       0.038200
     53 H5          12.6510    -0.5970     0.5650 hc         1 7TM       0.038200
     54 H6          11.5390     1.6370     0.4010 hc         1 7TM       0.038700
     55 H7          11.4270     1.4560    -1.3360 hc         1 7TM       0.038700
     56 H8          10.0070    -0.5870    -1.0270 hc         1 7TM       0.042700
     57 H9          10.1080    -0.3900     0.7110 hc         1 7TM       0.042700
     58 H10          9.0100     1.8550     0.5140 hc         1 7TM       0.046700
     59 H11          8.9030     1.6440    -1.2270 hc         1 7TM       0.046700
     60 H12          7.4990    -0.3980    -0.8880 h1         1 7TM       0.052700
     61 H13          7.5830    -0.1630     0.8530 h1         1 7TM       0.052700
     62 H14          6.6700     2.2760    -0.1640 hn         1 7TM       0.333500
     63 H15          3.1960     1.1210    -2.5810 ha         1 7TM       0.130500
     64 H16          0.7710     0.8390    -2.8720 ha         1 7TM       0.122500
     65 H17          2.5720     2.2340     1.5060 ha         1 7TM       0.130500
     66 H18          0.1460     1.9690     1.2080 ha         1 7TM       0.122500
     67 H19         -1.7330     2.0820    -0.6360 hc         1 7TM       0.055200
     68 H20         -1.4770     1.0920    -2.0620 hc         1 7TM       0.055200
     69 H21         -1.3490     0.0690     0.8140 h1         1 7TM       0.099700
     70 H22         -1.2450    -1.3990    -1.8530 h1         1 7TM       0.055700
     71 H23          0.0110    -1.2450    -0.6750 h1         1 7TM       0.055700
     72 H24         -1.2600    -3.6870     1.5800 h1         1 7TM       0.052200
     73 H25         -0.1040    -3.9910     0.2990 h1         1 7TM       0.052200
     74 H26         -0.7680    -1.3720     3.1990 h4         1 7TM       0.053100
     75 H27          3.1570    -0.8580     1.8870 h5         1 7TM       0.064100
     76 H28          1.8910    -2.3370    -0.9410 h1         1 7TM       0.058033
     77 H29          3.3380    -2.4360     0.0560 h1         1 7TM       0.058033
     78 H30          2.1890    -3.7800     0.0440 h1         1 7TM       0.058033
     79 H31         -2.0970    -5.0780     0.1400 ha         1 7TM       0.116000
     80 H32         -4.1030    -6.2100    -0.5800 ha         1 7TM       0.122000
     81 H33         -5.6820    -2.5020    -2.0270 ha         1 7TM       0.119000
     82 H34         -3.2060    -0.5940    -2.2400 h1         1 7TM       0.053200
     83 H35         -4.7560    -0.5370    -1.4850 h1         1 7TM       0.053200
     84 H36         -6.5210     1.0460    -0.2280 ha         1 7TM       0.134500
     85 H37         -7.3830     3.2510    -0.8530 ha         1 7TM       0.127500
     86 H38         -5.4400     6.8380     0.9450 h1         1 7TM       0.046033
     87 H39         -4.6150     6.7370    -0.6280 h1         1 7TM       0.046033
     88 H40         -6.2130     7.4960    -0.5090 h1         1 7TM       0.046033
     89 H41         -3.9130     5.0980     0.8950 ha         1 7TM       0.127500
     90 H42         -3.0580     2.9140     1.5090 ha         1 7TM       0.134500
@<TRIPOS>BOND
     1     1     2 1   
     2     1    49 1   
     3     1    50 1   
     4     1    51 1   
     5     2     3 1   
     6     2    52 1   
     7     2    53 1   
     8     3     4 1   
     9     3    54 1   
    10     3    55 1   
    11     4     5 1   
    12     4    56 1   
    13     4    57 1   
    14     5     6 1   
    15     5    58 1   
    16     5    59 1   
    17     6     7 1   
    18     6    60 1   
    19     6    61 1   
    20     7     8 1   
    21     7    62 1   
    22     8     9 2   
    23     8    10 1   
    24    10    11 1   
    25    11    12 ar  
    26    11    14 ar  
    27    12    13 ar  
    28    12    63 1   
    29    13    16 ar  
    30    13    64 1   
    31    14    15 ar  
    32    14    65 1   
    33    15    16 ar  
    34    15    66 1   
    35    16    17 1   
    36    17    18 1   
    37    17    67 1   
    38    17    68 1   
    39    18    19 1   
    40    18    37 1   
    41    18    69 1   
    42    19    20 1   
    43    19    70 1   
    44    19    71 1   
    45    20    21 1   
    46    20    28 1   
    47    21    22 1   
    48    21    72 1   
    49    21    73 1   
    50    22    23 2   
    51    22    26 1   
    52    23    24 1   
    53    23    74 1   
    54    24    25 2   
    55    25    26 1   
    56    25    75 1   
    57    26    27 1   
    58    27    76 1   
    59    27    77 1   
    60    27    78 1   
    61    28    29 ar  
    62    28    35 ar  
    63    29    30 ar  
    64    29    79 1   
    65    30    31 ar  
    66    30    80 1   
    67    31    32 1   
    68    31    34 ar  
    69    32    33 3   
    70    34    35 ar  
    71    34    81 1   
    72    35    36 1   
    73    36    37 1   
    74    36    82 1   
    75    36    83 1   
    76    37    38 1   
    77    38    39 2   
    78    38    40 2   
    79    38    41 1   
    80    41    42 ar  
    81    41    48 ar  
    82    42    43 ar  
    83    42    84 1   
    84    43    44 ar  
    85    43    85 1   
    86    44    45 1   
    87    44    47 ar  
    88    45    46 1   
    89    46    86 1   
    90    46    87 1   
    91    46    88 1   
    92    47    48 ar  
    93    47    89 1   
    94    48    90 1   
@<TRIPOS>SUBSTRUCTURE
     1 7TM         1 TEMP              0 ****  ****    0 ROOT
