@<TRIPOS>MOLECULE
7TN
   40    42     1     0     0
SMALL
No Charge or Current Charge


@<TRIPOS>ATOM
      1 C10         13.3770    68.0470    85.7010 ca         1 7TN       0.363000
      2 C13         13.5090    67.4090    84.4450 ca         1 7TN       0.056100
      3 C15         12.3820    66.8360    83.8230 ca         1 7TN      -0.070000
      4 C17          8.6560    66.3720    84.6320 cc         1 7TN      -0.152600
      5 C20         15.2070    66.3000    83.1150 ca         1 7TN       0.087100
      6 C21         14.9680    64.9870    83.5700 ca         1 7TN      -0.112000
      7 C22         15.9610    66.5120    81.9490 ca         1 7TN      -0.112000
      8 C24         16.4600    65.4150    81.2240 ca         1 7TN      -0.098500
      9 C26          6.2050    65.7190    84.4840 c          1 7TN       0.602900
     10 C11         11.1260    66.8700    84.4660 ca         1 7TN      -0.233600
     11 C12         11.0090    67.4820    85.7210 ca         1 7TN       0.170100
     12 C14         12.1260    68.0660    86.3340 ca         1 7TN      -0.193000
     13 C16          9.9110    66.2660    83.8370 c          1 7TN       0.594900
     14 C18          8.6390    66.9940    85.8710 cd         1 7TN       0.001100
     15 C19         14.1460    71.1460    85.3680 c3         1 7TN      -0.374100
     16 C23         15.4670    63.8910    82.8440 ca         1 7TN      -0.098500
     17 C25         16.2110    64.1060    81.6700 ca         1 7TN      -0.103000
     18 N08         14.4940    68.6200    86.3010 nu         1 7TN      -0.912100
     19 N09          7.5140    65.7990    84.0320 ns         1 7TN      -0.403100
     20 O02          9.8010    67.5230    86.3740 os         1 7TN      -0.189200
     21 O03         14.7400    67.3910    83.8130 os         1 7TN      -0.269200
     22 O04          9.9580    65.7200    82.7390 o          1 7TN      -0.559100
     23 O05         13.6620    70.3870    87.8670 o          1 7TN      -0.521500
     24 O06         16.0610    70.3870    87.0220 o          1 7TN      -0.521500
     25 O07          5.8160    66.1700    85.5560 o          1 7TN      -0.595100
     26 S01         14.6310    70.1920    86.7880 s6         1 7TN       1.222100
     27 H1          12.4850    66.3700    82.8440 ha         1 7TN       0.153000
     28 H2          14.4030    64.8150    84.4830 ha         1 7TN       0.129500
     29 H3          16.1540    67.5250    81.6060 ha         1 7TN       0.129500
     30 H4          17.0400    65.5810    80.3180 ha         1 7TN       0.120500
     31 H5           5.5470    65.1990    83.7630 h5         1 7TN       0.024200
     32 H6          12.0130    68.5200    87.3120 ha         1 7TN       0.159000
     33 H7           7.7890    67.1280    86.5320 h4         1 7TN       0.267000
     34 H8          14.2520    72.2020    85.6350 h1         1 7TN       0.107367
     35 H9          14.8100    70.8770    84.5410 h1         1 7TN       0.107367
     36 H10         13.1040    70.8980    85.1420 h1         1 7TN       0.107367
     37 H11         15.2810    62.8780    83.1920 ha         1 7TN       0.120500
     38 H12         16.5980    63.2570    81.1090 ha         1 7TN       0.120000
     39 H13         15.3540    68.4770    85.7870 hn         1 7TN       0.533000
     40 H14          7.6420    65.3680    83.1210 hn         1 7TN       0.345500
@<TRIPOS>BOND
     1     1     2 ar  
     2     1    12 ar  
     3     1    18 1   
     4     2     3 ar  
     5     2    21 1   
     6     3    10 ar  
     7     3    27 1   
     8     4    13 1   
     9     4    14 2   
    10     4    19 1   
    11     5     6 ar  
    12     5     7 ar  
    13     5    21 1   
    14     6    16 ar  
    15     6    28 1   
    16     7     8 ar  
    17     7    29 1   
    18     8    17 ar  
    19     8    30 1   
    20     9    19 1   
    21     9    25 2   
    22     9    31 1   
    23    10    11 ar  
    24    10    13 1   
    25    11    12 ar  
    26    11    20 1   
    27    12    32 1   
    28    13    22 2   
    29    14    20 1   
    30    14    33 1   
    31    15    26 1   
    32    15    34 1   
    33    15    35 1   
    34    15    36 1   
    35    16    17 ar  
    36    16    37 1   
    37    17    38 1   
    38    18    26 1   
    39    18    39 1   
    40    19    40 1   
    41    23    26 2   
    42    24    26 2   
@<TRIPOS>SUBSTRUCTURE
     1 7TN         1 TEMP              0 ****  ****    0 ROOT
