@<TRIPOS>MOLECULE
7TN
   40    42     1     0     0
SMALL
abcg2


@<TRIPOS>ATOM
      1 C10         13.4070    68.1630    85.5400 ca         1 7TN       0.363000
      2 C13         13.6060    67.1890    84.5230 ca         1 7TN       0.056100
      3 C15         12.5490    66.4970    84.0010 ca         1 7TN      -0.070000
      4 C17          8.8170    66.4040    84.4930 cc         1 7TN      -0.152600
      5 C20         15.2170    66.0250    83.2550 ca         1 7TN       0.087100
      6 C21         15.4640    64.7510    83.7430 ca         1 7TN      -0.112000
      7 C22         15.3210    66.3160    81.9050 ca         1 7TN      -0.112000
      8 C24         15.6850    65.3050    81.0250 ca         1 7TN      -0.098500
      9 C26          6.4290    65.8410    84.2910 c          1 7TN       0.602900
     10 C11         11.2450    66.7440    84.4580 ca         1 7TN      -0.233600
     11 C12         11.0600    67.6980    85.4470 ca         1 7TN       0.170100
     12 C14         12.1280    68.4030    85.9990 ca         1 7TN      -0.193000
     13 C16         10.1070    66.0230    83.9180 c          1 7TN       0.594900
     14 C18          8.7550    67.3530    85.4520 cd         1 7TN       0.001100
     15 C19         13.9000    71.4590    85.9720 c3         1 7TN      -0.374100
     16 C23         15.8260    63.7490    82.8530 ca         1 7TN      -0.098500
     17 C25         15.9360    64.0220    81.4960 ca         1 7TN      -0.103000
     18 N08         14.5410    68.8070    86.0090 nu         1 7TN      -0.912100
     19 N09          7.7310    65.7150    83.9660 ns         1 7TN      -0.403100
     20 O02          9.8370    67.9840    85.9240 os         1 7TN      -0.189200
     21 O03         14.8980    67.0350    84.1360 os         1 7TN      -0.269200
     22 O04         10.1920    65.1620    83.0510 o          1 7TN      -0.559100
     23 O05         13.7740    69.9580    88.1320 o          1 7TN      -0.521500
     24 O06         16.0270    70.4190    87.1350 o          1 7TN      -0.521500
     25 O07          5.9810    66.6060    85.1200 o          1 7TN      -0.595100
     26 S01         14.6100    70.1690    86.9640 s6         1 7TN       1.222100
     27 H1          12.6970    65.7560    83.2270 ha         1 7TN       0.153000
     28 H2          15.3790    64.5480    84.8030 ha         1 7TN       0.129500
     29 H3          15.1240    67.3180    81.5460 ha         1 7TN       0.129500
     30 H4          15.7720    65.5220    79.9690 ha         1 7TN       0.120500
     31 H5           5.8020    65.1550    83.7060 h5         1 7TN       0.024200
     32 H6          11.9280    69.1150    86.7880 ha         1 7TN       0.159000
     33 H7           7.8500    67.6940    85.9270 h4         1 7TN       0.267000
     34 H8          13.9010    72.3700    86.5680 h1         1 7TN       0.107367
     35 H9          14.5110    71.5890    85.0810 h1         1 7TN       0.107367
     36 H10         12.8790    71.2040    85.6960 h1         1 7TN       0.107367
     37 H11         16.0260    62.7530    83.2250 ha         1 7TN       0.120500
     38 H12         16.2190    63.2380    80.8070 ha         1 7TN       0.120000
     39 H13         15.4100    68.6090    85.5270 hn         1 7TN       0.533000
     40 H14          7.9710    65.0370    83.2540 hn         1 7TN       0.345500
@<TRIPOS>BOND
     1     1     2 ar  
     2     1    12 ar  
     3     1    18 1   
     4     2     3 ar  
     5     2    21 1   
     6     3    10 ar  
     7     3    27 1   
     8     4    13 1   
     9     4    14 2   
    10     4    19 1   
    11     5     6 ar  
    12     5     7 ar  
    13     5    21 1   
    14     6    16 ar  
    15     6    28 1   
    16     7     8 ar  
    17     7    29 1   
    18     8    17 ar  
    19     8    30 1   
    20     9    19 1   
    21     9    25 2   
    22     9    31 1   
    23    10    11 ar  
    24    10    13 1   
    25    11    12 ar  
    26    11    20 1   
    27    12    32 1   
    28    13    22 2   
    29    14    20 1   
    30    14    33 1   
    31    15    26 1   
    32    15    34 1   
    33    15    35 1   
    34    15    36 1   
    35    16    17 ar  
    36    16    37 1   
    37    17    38 1   
    38    18    26 1   
    39    18    39 1   
    40    19    40 1   
    41    23    26 2   
    42    24    26 2   
@<TRIPOS>SUBSTRUCTURE
     1 7TN         1 TEMP              0 ****  ****    0 ROOT
