@<TRIPOS>MOLECULE
7TO
   74    78     1     0     0
SMALL
bcc


@<TRIPOS>ATOM
      1 CAA          4.9630     3.7630    -2.9260 c3         1 7TO       0.121700
      2 OBD          4.1790     2.6240    -3.2300 os         1 7TO      -0.314900
      3 CBH          3.1440     2.3240    -2.4380 ca         1 7TO       0.196100
      4 CAR          2.4090     1.1860    -2.7860 ca         1 7TO      -0.220500
      5 CAT          1.3460     0.7820    -2.0070 ca         1 7TO       0.014000
      6 CAQ          2.7700     3.0710    -1.3210 ca         1 7TO      -0.220500
      7 CAS          1.7010     2.6600    -0.5440 ca         1 7TO       0.014000
      8 CBK          0.9980     1.5120    -0.8750 ca         1 7TO      -0.338500
      9 SBT         -0.2590     0.8950     0.1930 sy         1 7TO       1.337200
     10 OAF         -0.7130     2.0060     1.0150 o          1 7TO      -0.606300
     11 OAG         -1.2080     0.1430    -0.6100 o          1 7TO      -0.606300
     12 NBP          0.4770    -0.1840     1.2030 n3         1 7TO      -0.762500
     13 CAZ          1.4260     0.3110     2.1790 c3         1 7TO       0.265100
     14 CBJ          2.8070     0.6000     1.6210 ca         1 7TO      -0.194300
     15 CAX          3.4440     1.7270     2.0990 ca         1 7TO      -0.042000
     16 CBF          4.6650     2.1620     1.5830 ca         1 7TO      -0.076000
     17 CAK          5.2780     3.3420     2.0820 cg         1 7TO       0.240800
     18 NAC          5.7780     4.3030     2.4820 n1         1 7TO      -0.370800
     19 CAL          5.2480     1.4430     0.5440 ca         1 7TO      -0.041000
     20 CAU          4.6380     0.3060     0.0660 ca         1 7TO      -0.217000
     21 CBM          3.4190    -0.1630     0.5920 ca         1 7TO       0.234600
     22 NBO          2.8450    -1.3080     0.0990 nh         1 7TO      -0.684000
     23 CBA          3.4560    -1.9430    -1.0680 c3         1 7TO       0.301100
     24 CBL          2.6390    -3.0340    -1.6640 cc         1 7TO      -0.261900
     25 CAV          1.5770    -3.0070    -2.5300 cd         1 7TO       0.331200
     26 NBC          1.1580    -4.2690    -2.8200 nd         1 7TO      -0.665000
     27 CAW          1.9550    -5.0590    -2.1450 cc         1 7TO       0.402400
     28 NBQ          2.8680    -4.3700    -1.4320 na         1 7TO      -0.187900
     29 CAB          3.9010    -4.9450    -0.6000 c3         1 7TO       0.023600
     30 CBB          1.9770    -2.0890     0.9550 c3         1 7TO       0.206800
     31 CBN          0.5290    -1.6090     0.9050 c3         1 7TO       0.230500
     32 CAY         -0.3410    -2.4060     1.8870 c3         1 7TO      -0.035100
     33 CBG         -1.7660    -1.9500     1.8590 ca         1 7TO      -0.068300
     34 CAN         -2.6700    -2.4920     0.9510 ca         1 7TO      -0.100500
     35 CAP         -3.9660    -2.0120     0.8600 ca         1 7TO      -0.108000
     36 CAM         -2.1970    -0.9280     2.7000 ca         1 7TO      -0.100500
     37 CAO         -3.4930    -0.4410     2.6350 ca         1 7TO      -0.108000
     38 CBI         -4.3520    -0.9840     1.6990 ca         1 7TO       0.100100
     39 OBE         -5.6850    -0.5540     1.6300 os         1 7TO      -0.437800
     40 SBS         -6.0600     0.8830     1.0420 s6         1 7TO       1.311500
     41 OAD         -7.4630     1.0400     1.3060 o          1 7TO      -0.541300
     42 OAE         -5.0850     1.8760     1.4010 o          1 7TO      -0.541300
     43 CBR         -5.8880     0.5870    -0.7780 c3         1 7TO       0.589700
     44 FAI         -6.4280     1.6150    -1.4030 f          1 7TO      -0.218300
     45 FAJ         -4.6140     0.4860    -1.0990 f          1 7TO      -0.218300
     46 FAH         -6.5240    -0.5210    -1.1080 f          1 7TO      -0.218300
     47 H1           4.3750     4.6830    -2.9650 h1         1 7TO       0.046700
     48 H2           5.4300     3.6830    -1.9410 h1         1 7TO       0.046700
     49 H3           5.7420     3.8110    -3.6820 h1         1 7TO       0.046700
     50 H4           2.6830     0.6250    -3.6710 ha         1 7TO       0.145000
     51 H5           0.7860    -0.0980    -2.2890 ha         1 7TO       0.151000
     52 H6           3.3000     3.9690    -1.0360 ha         1 7TO       0.145000
     53 H7           1.4260     3.2490     0.3200 ha         1 7TO       0.151000
     54 H8           1.0330     1.2190     2.6360 h1         1 7TO       0.069200
     55 H9           1.4650    -0.4150     2.9940 h1         1 7TO       0.069200
     56 H10          2.9590     2.3140     2.8700 ha         1 7TO       0.144000
     57 H11          6.1890     1.7620     0.1160 ha         1 7TO       0.140000
     58 H12          5.1420    -0.2340    -0.7210 ha         1 7TO       0.137000
     59 H13          3.5990    -1.1760    -1.8320 h1         1 7TO       0.055700
     60 H14          4.4540    -2.3270    -0.8270 h1         1 7TO       0.055700
     61 H15          1.1050    -2.1410    -2.9680 h4         1 7TO       0.045100
     62 H16          1.9230    -6.1380    -2.1390 h5         1 7TO       0.058100
     63 H17          4.8860    -4.6200    -0.9250 h1         1 7TO       0.055700
     64 H18          3.7640    -4.6690     0.4450 h1         1 7TO       0.055700
     65 H19          3.8510    -6.0280    -0.6780 h1         1 7TO       0.055700
     66 H20          1.9920    -3.1310     0.6420 h1         1 7TO       0.054200
     67 H21          2.3550    -2.0920     1.9810 h1         1 7TO       0.054200
     68 H22          0.1590    -1.7740    -0.1070 h1         1 7TO       0.090700
     69 H23         -0.2730    -3.4650     1.6230 hc         1 7TO       0.053200
     70 H24          0.0680    -2.3090     2.8970 hc         1 7TO       0.053200
     71 H25         -2.3620    -3.2980     0.2970 ha         1 7TO       0.142500
     72 H26         -4.6630    -2.4450     0.1540 ha         1 7TO       0.158500
     73 H27         -1.5160    -0.5050     3.4270 ha         1 7TO       0.142500
     74 H28         -3.8200     0.3370     3.3110 ha         1 7TO       0.158500
@<TRIPOS>BOND
     1     1     2 1   
     2     1    47 1   
     3     1    48 1   
     4     1    49 1   
     5     2     3 1   
     6     3     4 ar  
     7     3     6 ar  
     8     4     5 ar  
     9     4    50 1   
    10     5     8 ar  
    11     5    51 1   
    12     6     7 ar  
    13     6    52 1   
    14     7     8 ar  
    15     7    53 1   
    16     8     9 1   
    17     9    10 2   
    18     9    11 2   
    19     9    12 1   
    20    12    13 1   
    21    12    31 1   
    22    13    14 1   
    23    13    54 1   
    24    13    55 1   
    25    14    15 ar  
    26    14    21 ar  
    27    15    16 ar  
    28    15    56 1   
    29    16    17 1   
    30    16    19 ar  
    31    17    18 3   
    32    19    20 ar  
    33    19    57 1   
    34    20    21 ar  
    35    20    58 1   
    36    21    22 1   
    37    22    23 1   
    38    22    30 1   
    39    23    24 1   
    40    23    59 1   
    41    23    60 1   
    42    24    25 2   
    43    24    28 1   
    44    25    26 1   
    45    25    61 1   
    46    26    27 2   
    47    27    28 1   
    48    27    62 1   
    49    28    29 1   
    50    29    63 1   
    51    29    64 1   
    52    29    65 1   
    53    30    31 1   
    54    30    66 1   
    55    30    67 1   
    56    31    32 1   
    57    31    68 1   
    58    32    33 1   
    59    32    69 1   
    60    32    70 1   
    61    33    34 ar  
    62    33    36 ar  
    63    34    35 ar  
    64    34    71 1   
    65    35    38 ar  
    66    35    72 1   
    67    36    37 ar  
    68    36    73 1   
    69    37    38 ar  
    70    37    74 1   
    71    38    39 1   
    72    39    40 1   
    73    40    41 2   
    74    40    42 2   
    75    40    43 1   
    76    43    44 1   
    77    43    45 1   
    78    43    46 1   
@<TRIPOS>SUBSTRUCTURE
     1 7TO         1 TEMP              0 ****  ****    0 ROOT
