@<TRIPOS>MOLECULE
7TO
   74    78     1     0     0
SMALL
No Charge or Current Charge


@<TRIPOS>ATOM
      1 CAA          4.3080     5.6230    -1.9110 c3         1 7TO       0.144900
      2 OBD          4.1720     4.2560    -2.3360 os         1 7TO      -0.338100
      3 CBH          3.1640     3.4380    -1.8710 ca         1 7TO       0.196100
      4 CAR          3.1430     2.1090    -2.3170 ca         1 7TO      -0.202500
      5 CAT          2.1530     1.2210    -1.8680 ca         1 7TO       0.032000
      6 CAQ          2.1740     3.8870    -0.9700 ca         1 7TO      -0.202500
      7 CAS          1.1790     3.0030    -0.5180 ca         1 7TO       0.032000
      8 CBK          1.1730     1.6670    -0.9610 ca         1 7TO      -0.338500
      9 SBT         -0.0650     0.5140    -0.3530 sy         1 7TO       1.195600
     10 OAF         -1.1880     1.2420     0.2470 o          1 7TO      -0.535500
     11 OAG         -0.2680    -0.4740    -1.4180 o          1 7TO      -0.535500
     12 NBP          0.7380    -0.2860     0.9220 n3         1 7TO      -0.762500
     13 CAZ          1.7650     0.4200     1.7010 c3         1 7TO       0.265100
     14 CBJ          3.1610     0.4580     1.0700 ca         1 7TO      -0.194300
     15 CAX          3.8720     1.6730     1.1990 ca         1 7TO      -0.024000
     16 CBF          5.1470     1.8330     0.6360 ca         1 7TO      -0.076000
     17 CAK          5.8420     3.0830     0.7630 cg         1 7TO       0.330000
     18 NAC          6.4090     4.0970     0.8770 n1         1 7TO      -0.460000
     19 CAL          5.7360     0.7640    -0.0510 ca         1 7TO      -0.023000
     20 CAU          5.0470    -0.4510    -0.1780 ca         1 7TO      -0.199000
     21 CBM          3.7550    -0.6300     0.3640 ca         1 7TO       0.373000
     22 NBO          3.1130    -1.8870     0.1780 nh         1 7TO      -0.822400
     23 CBA          3.3920    -2.7150    -1.0220 c3         1 7TO       0.301100
     24 CBL          2.2890    -3.6470    -1.4550 cc         1 7TO      -0.247300
     25 CAV          1.2120    -3.3760    -2.2590 cd         1 7TO       0.265900
     26 NBC          0.4360    -4.5040    -2.4350 nd         1 7TO      -0.665000
     27 CAW          1.0400    -5.4650    -1.7510 cc         1 7TO       0.402400
     28 NBQ          2.1850    -4.9910    -1.1440 na         1 7TO      -0.166500
     29 CAB          3.1230    -5.7880    -0.3360 c3         1 7TO       0.052900
     30 CBB          2.1210    -2.3870     1.1670 c3         1 7TO       0.206800
     31 CBN          0.6980    -1.7680     1.0280 c3         1 7TO       0.230500
     32 CAY         -0.2210    -2.2410     2.1810 c3         1 7TO      -0.035100
     33 CBG         -1.6730    -1.8150     1.9950 ca         1 7TO      -0.068300
     34 CAN         -2.4500    -2.3790     0.9640 ca         1 7TO      -0.082500
     35 CAP         -3.7840    -1.9750     0.7790 ca         1 7TO      -0.090000
     36 CAM         -2.2500    -0.8540     2.8490 ca         1 7TO      -0.082500
     37 CAO         -3.5840    -0.4510     2.6650 ca         1 7TO      -0.090000
     38 CBI         -4.3450    -0.9940     1.6140 ca         1 7TO       0.100100
     39 OBE         -5.6580    -0.6320     1.4300 os         1 7TO      -0.437800
     40 SBS         -6.0340     0.8770     0.8500 s6         1 7TO       1.280700
     41 OAD         -7.4730     1.1000     1.0620 o          1 7TO      -0.470500
     42 OAE         -5.0570     1.8530     1.3580 o          1 7TO      -0.470500
     43 CBR         -5.7200     0.5670    -0.9460 c3         1 7TO       0.115000
     44 FAI         -6.1020     1.6290    -1.6980 f          1 7TO      -0.097000
     45 FAJ         -4.4060     0.3500    -1.2020 f          1 7TO      -0.097000
     46 FAH         -6.4070    -0.5130    -1.3950 f          1 7TO      -0.097000
     47 H1           3.4200     6.2070    -2.1850 h1         1 7TO       0.046700
     48 H2           4.4460     5.6820    -0.8240 h1         1 7TO       0.046700
     49 H3           5.1790     6.0860    -2.3900 h1         1 7TO       0.046700
     50 H4           3.9070     1.7610    -3.0060 ha         1 7TO       0.127000
     51 H5           2.1640     0.1870    -2.2080 ha         1 7TO       0.133000
     52 H6           2.1630     4.9100    -0.6080 ha         1 7TO       0.127000
     53 H7           0.4250     3.3590     0.1840 ha         1 7TO       0.133000
     54 H8           1.4260     1.4480     1.8880 h1         1 7TO       0.069200
     55 H9           1.8580    -0.0370     2.6950 h1         1 7TO       0.069200
     56 H10          3.4210     2.5090     1.7310 ha         1 7TO       0.126000
     57 H11          6.7280     0.8700    -0.4870 ha         1 7TO       0.122000
     58 H12          5.5410    -1.2620    -0.7010 ha         1 7TO       0.119000
     59 H13          3.6030    -2.0540    -1.8740 h1         1 7TO       0.055700
     60 H14          4.3030    -3.3050    -0.8500 h1         1 7TO       0.055700
     61 H15          0.9550    -2.4320    -2.7250 h4         1 7TO       0.045100
     62 H16          0.7180    -6.4960    -1.6640 h5         1 7TO       0.058100
     63 H17          4.0000    -6.0460    -0.9430 h1         1 7TO       0.055700
     64 H18          3.4470    -5.2140     0.5400 h1         1 7TO       0.055700
     65 H19          2.6340    -6.7110     0.0020 h1         1 7TO       0.055700
     66 H20          2.0340    -3.4790     1.1150 h1         1 7TO       0.054200
     67 H21          2.4990    -2.1790     2.1770 h1         1 7TO       0.054200
     68 H22          0.2870    -2.2050     0.1110 h1         1 7TO       0.090700
     69 H23         -0.1730    -3.3350     2.2460 hc         1 7TO       0.053200
     70 H24          0.1740    -1.8630     3.1320 hc         1 7TO       0.053200
     71 H25         -2.0220    -3.1300     0.3030 ha         1 7TO       0.124500
     72 H26         -4.3790    -2.4170    -0.0150 ha         1 7TO       0.140500
     73 H27         -1.6640    -0.4140     3.6530 ha         1 7TO       0.124500
     74 H28         -4.0220     0.2830     3.3370 ha         1 7TO       0.140500
@<TRIPOS>BOND
     1     1     2 1   
     2     1    47 1   
     3     1    48 1   
     4     1    49 1   
     5     2     3 1   
     6     3     4 ar  
     7     3     6 ar  
     8     4     5 ar  
     9     4    50 1   
    10     5     8 ar  
    11     5    51 1   
    12     6     7 ar  
    13     6    52 1   
    14     7     8 ar  
    15     7    53 1   
    16     8     9 1   
    17     9    10 2   
    18     9    11 2   
    19     9    12 1   
    20    12    13 1   
    21    12    31 1   
    22    13    14 1   
    23    13    54 1   
    24    13    55 1   
    25    14    15 ar  
    26    14    21 ar  
    27    15    16 ar  
    28    15    56 1   
    29    16    17 1   
    30    16    19 ar  
    31    17    18 3   
    32    19    20 ar  
    33    19    57 1   
    34    20    21 ar  
    35    20    58 1   
    36    21    22 1   
    37    22    23 1   
    38    22    30 1   
    39    23    24 1   
    40    23    59 1   
    41    23    60 1   
    42    24    25 2   
    43    24    28 1   
    44    25    26 1   
    45    25    61 1   
    46    26    27 2   
    47    27    28 1   
    48    27    62 1   
    49    28    29 1   
    50    29    63 1   
    51    29    64 1   
    52    29    65 1   
    53    30    31 1   
    54    30    66 1   
    55    30    67 1   
    56    31    32 1   
    57    31    68 1   
    58    32    33 1   
    59    32    69 1   
    60    32    70 1   
    61    33    34 ar  
    62    33    36 ar  
    63    34    35 ar  
    64    34    71 1   
    65    35    38 ar  
    66    35    72 1   
    67    36    37 ar  
    68    36    73 1   
    69    37    38 ar  
    70    37    74 1   
    71    38    39 1   
    72    39    40 1   
    73    40    41 2   
    74    40    42 2   
    75    40    43 1   
    76    43    44 1   
    77    43    45 1   
    78    43    46 1   
@<TRIPOS>SUBSTRUCTURE
     1 7TO         1 TEMP              0 ****  ****    0 ROOT
