@<TRIPOS>MOLECULE
7TP
   76    81     1     0     0
SMALL
No Charge or Current Charge


@<TRIPOS>ATOM
      1 CAA          5.0560    -1.1190     3.2700 c3         1 7TP       0.145900
      2 OBB          3.9570    -0.1920     3.2880 os         1 7TP      -0.338100
      3 CBG          2.7290    -0.4970     2.7380 ca         1 7TP       0.193100
      4 CAN          1.7370     0.4930     2.7670 ca         1 7TP      -0.201000
      5 CAQ          0.4720     0.2510     2.2080 ca         1 7TP       0.031500
      6 CAM          2.4470    -1.7510     2.1530 ca         1 7TP      -0.201000
      7 CAP          1.1820    -2.0000     1.5950 ca         1 7TP       0.031500
      8 CBJ          0.1960    -0.9960     1.6140 ca         1 7TP      -0.336500
      9 SBR         -1.4120    -1.2850     0.8580 sy         1 7TP       1.200600
     10 OAD         -1.6360    -2.7240     0.6820 o          1 7TP      -0.539500
     11 OAE         -2.3660    -0.4390     1.5840 o          1 7TP      -0.539500
     12 NBP         -1.2420    -0.6200    -0.7060 n3         1 7TP      -0.759500
     13 CAX          0.0770    -0.6010    -1.3550 c3         1 7TP       0.265100
     14 CBI          1.0100     0.5400    -0.9320 ca         1 7TP      -0.185300
     15 CAV          2.3710     0.2040    -0.7680 ca         1 7TP      -0.035000
     16 CBH          3.3210     1.1500    -0.3420 ca         1 7TP      -0.193500
     17 CBL          4.7160     0.7450    -0.1460 cc         1 7TP       0.246500
     18 OBC          5.2140    -0.4500    -0.6090 os         1 7TP      -0.223000
     19 CAR          5.6730     1.4500     0.5320 cd         1 7TP      -0.217000
     20 CAL          6.8460     0.6640     0.4840 cd         1 7TP      -0.085000
     21 CBF          6.5360    -0.4770    -0.2150 cc         1 7TP       0.003500
     22 CAG          7.4520    -1.6000    -0.5190 c          1 7TP       0.503400
     23 OAC          8.6300    -1.6530    -0.1770 o          1 7TP      -0.512100
     24 CAO          2.8980     2.4680    -0.1070 ca         1 7TP      -0.038000
     25 CAS          1.5520     2.8200    -0.2810 ca         1 7TP      -0.193000
     26 CBM          0.5830     1.8750    -0.6800 ca         1 7TP       0.363000
     27 NBO         -0.7700     2.3050    -0.8100 nh         1 7TP      -0.822400
     28 CAY         -1.3010     3.4100     0.0270 c3         1 7TP       0.301100
     29 CBK         -2.7870     3.3940     0.2830 cc         1 7TP      -0.244300
     30 CAT         -3.4750     2.7250     1.2640 cd         1 7TP       0.265900
     31 NBA         -4.8280     2.9830     1.1750 nd         1 7TP      -0.665000
     32 CAU         -4.9680     3.8130     0.1510 cc         1 7TP       0.400400
     33 NBQ         -3.7450     4.1030    -0.4180 na         1 7TP      -0.166500
     34 CAB         -3.5180     5.0170    -1.5500 c3         1 7TP       0.053900
     35 CAZ         -1.6910     1.6330    -1.7630 c3         1 7TP       0.205800
     36 CBN         -2.2870     0.2850    -1.2560 c3         1 7TP       0.230500
     37 CAW         -3.1190    -0.3950    -2.3720 c3         1 7TP      -0.022100
     38 CBE         -3.9450    -1.5770    -1.8700 ca         1 7TP      -0.128300
     39 CAJ         -3.5820    -2.8960    -2.2070 ca         1 7TP      -0.058000
     40 CAH         -4.3460    -3.9800    -1.7410 ca         1 7TP      -0.167500
     41 CBD         -5.4720    -3.7530    -0.9370 ca         1 7TP       0.144100
     42 OAF         -6.2060    -4.8110    -0.4900 oh         1 7TP      -0.535100
     43 CAI         -5.8390    -2.4410    -0.5970 ca         1 7TP      -0.167500
     44 CAK         -5.0780    -1.3550    -1.0620 ca         1 7TP      -0.058000
     45 H1           5.9420    -0.6670     3.7330 h1         1 7TP       0.045367
     46 H2           4.8070    -2.0300     3.8300 h1         1 7TP       0.045367
     47 H3           5.3140    -1.3980     2.2410 h1         1 7TP       0.045367
     48 H4           1.9540     1.4590     3.2120 ha         1 7TP       0.126000
     49 H5          -0.2800     1.0390     2.2190 ha         1 7TP       0.132500
     50 H6           3.1940    -2.5370     2.1180 ha         1 7TP       0.126000
     51 H7           0.9790    -2.9680     1.1380 ha         1 7TP       0.132500
     52 H8           0.5770    -1.5620    -1.1720 h1         1 7TP       0.068700
     53 H9          -0.0470    -0.5460    -2.4450 h1         1 7TP       0.068700
     54 H10          2.6910    -0.8200    -0.9500 ha         1 7TP       0.125000
     55 H11          5.5580     2.4110     1.0180 ha         1 7TP       0.142000
     56 H12          7.8120     0.9080     0.9190 ha         1 7TP       0.155000
     57 H13          6.9910    -2.4300    -1.0990 h4         1 7TP       0.009200
     58 H16          3.6050     3.2330     0.2050 ha         1 7TP       0.115000
     59 H17          1.2720     3.8530    -0.1040 ha         1 7TP       0.117000
     60 H18         -0.8080     3.3850     1.0090 h1         1 7TP       0.053200
     61 H19         -1.0360     4.3720    -0.4330 h1         1 7TP       0.053200
     62 H20         -3.0700     2.0780     2.0320 h4         1 7TP       0.046100
     63 H21         -5.8960     4.2380    -0.2140 h5         1 7TP       0.057100
     64 H22         -3.1460     5.9780    -1.1750 h1         1 7TP       0.055367
     65 H23         -2.7800     4.5870    -2.2370 h1         1 7TP       0.055367
     66 H24         -4.4580     5.1810    -2.0920 h1         1 7TP       0.055367
     67 H25         -2.5180     2.2970    -2.0410 h1         1 7TP       0.052700
     68 H26         -1.1500     1.4480    -2.7010 h1         1 7TP       0.052700
     69 H27         -3.0010     0.5660    -0.4730 h1         1 7TP       0.090700
     70 H28         -3.7940     0.3480    -2.8120 hc         1 7TP       0.046700
     71 H29         -2.4480    -0.7080    -3.1820 hc         1 7TP       0.046700
     72 H30         -2.7050    -3.0820    -2.8240 ha         1 7TP       0.111500
     73 H31         -4.0610    -4.9950    -2.0020 ha         1 7TP       0.121500
     74 H32         -6.9470    -4.4670     0.0520 ho         1 7TP       0.463000
     75 H33         -6.7110    -2.2550     0.0260 ha         1 7TP       0.121500
     76 H34         -5.3680    -0.3410    -0.7940 ha         1 7TP       0.111500
@<TRIPOS>BOND
     1     1     2 1   
     2     1    45 1   
     3     1    46 1   
     4     1    47 1   
     5     2     3 1   
     6     3     4 ar  
     7     3     6 ar  
     8     4     5 ar  
     9     4    48 1   
    10     5     8 ar  
    11     5    49 1   
    12     6     7 ar  
    13     6    50 1   
    14     7     8 ar  
    15     7    51 1   
    16     8     9 1   
    17     9    10 2   
    18     9    11 2   
    19     9    12 1   
    20    12    13 1   
    21    12    36 1   
    22    13    14 1   
    23    13    52 1   
    24    13    53 1   
    25    14    15 ar  
    26    14    26 ar  
    27    15    16 ar  
    28    15    54 1   
    29    16    17 1   
    30    16    24 ar  
    31    17    18 1   
    32    17    19 2   
    33    18    21 1   
    34    19    20 1   
    35    19    55 1   
    36    20    21 2   
    37    20    56 1   
    38    21    22 1   
    39    22    23 2   
    40    22    57 1   
    41    24    25 ar  
    42    24    58 1   
    43    25    26 ar  
    44    25    59 1   
    45    26    27 1   
    46    27    28 1   
    47    27    35 1   
    48    28    29 1   
    49    28    60 1   
    50    28    61 1   
    51    29    30 2   
    52    29    33 1   
    53    30    31 1   
    54    30    62 1   
    55    31    32 2   
    56    32    33 1   
    57    32    63 1   
    58    33    34 1   
    59    34    64 1   
    60    34    65 1   
    61    34    66 1   
    62    35    36 1   
    63    35    67 1   
    64    35    68 1   
    65    36    37 1   
    66    36    69 1   
    67    37    38 1   
    68    37    70 1   
    69    37    71 1   
    70    38    39 ar  
    71    38    44 ar  
    72    39    40 ar  
    73    39    72 1   
    74    40    41 ar  
    75    40    73 1   
    76    41    42 1   
    77    41    43 ar  
    78    42    74 1   
    79    43    44 ar  
    80    43    75 1   
    81    44    76 1   
@<TRIPOS>SUBSTRUCTURE
     1 7TP         1 TEMP              0 ****  ****    0 ROOT
