@<TRIPOS>MOLECULE
7TP
   76    81     1     0     0
SMALL
abcg2


@<TRIPOS>ATOM
      1 CAA          3.8960     1.1370     3.8780 c3         1 7TP       0.145900
      2 OBB          2.5020     1.3850     3.9210 os         1 7TP      -0.338100
      3 CBG          1.6880     0.5900     3.2170 ca         1 7TP       0.193100
      4 CAN          0.3260     0.9090     3.2540 ca         1 7TP      -0.201000
      5 CAQ         -0.5790     0.1740     2.5200 ca         1 7TP       0.031500
      6 CAM          2.1170    -0.5110     2.4790 ca         1 7TP      -0.201000
      7 CAP          1.2030    -1.2450     1.7440 ca         1 7TP       0.031500
      8 CBJ         -0.1380    -0.8950     1.7460 ca         1 7TP      -0.336500
      9 SBR         -1.2570    -1.7120     0.6560 sy         1 7TP       1.200600
     10 OAD         -0.7000    -3.0290     0.3820 o          1 7TP      -0.539500
     11 OAE         -2.5990    -1.5920     1.1990 o          1 7TP      -0.539500
     12 NBP         -1.2250    -0.8660    -0.7570 n3         1 7TP      -0.759500
     13 CAX          0.0060    -0.8370    -1.5220 c3         1 7TP       0.265100
     14 CBI          1.0350     0.1670    -1.0350 ca         1 7TP      -0.185300
     15 CAV          2.3620    -0.2170    -1.1030 ca         1 7TP      -0.035000
     16 CBH          3.3990     0.5580    -0.5850 ca         1 7TP      -0.193500
     17 CBL          4.7770     0.1200    -0.6200 cc         1 7TP       0.246500
     18 OBC          5.0670    -1.0030    -1.2860 os         1 7TP      -0.223000
     19 CAR          5.9270     0.6400    -0.0720 cd         1 7TP      -0.217000
     20 CAL          6.9700    -0.2310    -0.4350 cd         1 7TP      -0.085000
     21 CBF          6.4030    -1.2270    -1.1800 cc         1 7TP       0.003500
     22 CAG          6.9470    -2.3930    -1.8260 c          1 7TP       0.503400
     23 OAC          8.1260    -2.6870    -1.7950 o          1 7TP      -0.512100
     24 CAO          3.0590     1.7620     0.0260 ca         1 7TP      -0.038000
     25 CAS          1.7470     2.1780     0.0890 ca         1 7TP      -0.193000
     26 CBM          0.6990     1.4110    -0.4500 ca         1 7TP       0.363000
     27 NBO         -0.6030     1.8550    -0.3820 nh         1 7TP      -0.822400
     28 CAY         -0.8810     3.0570     0.3990 c3         1 7TP       0.301100
     29 CBK         -2.3330     3.3380     0.5640 cc         1 7TP      -0.244300
     30 CAT         -3.2830     2.7730     1.3720 cd         1 7TP       0.265900
     31 NBA         -4.4960     3.3590     1.1750 nd         1 7TP      -0.665000
     32 CAU         -4.2900     4.2730     0.2610 cc         1 7TP       0.400400
     33 NBQ         -3.0050     4.3030    -0.1460 na         1 7TP      -0.166500
     34 CAB         -2.4460     5.2180    -1.1170 c3         1 7TP       0.053900
     35 CAZ         -1.5290     1.4550    -1.4210 c3         1 7TP       0.205800
     36 CBN         -2.2260     0.1400    -1.0890 c3         1 7TP       0.230500
     37 CAW         -3.1120    -0.3300    -2.2490 c3         1 7TP      -0.022100
     38 CBE         -3.8610    -1.5850    -1.9140 ca         1 7TP      -0.128300
     39 CAJ         -3.3120    -2.8410    -2.1550 ca         1 7TP      -0.058000
     40 CAH         -3.9710    -4.0020    -1.7840 ca         1 7TP      -0.167500
     41 CBD         -5.2080    -3.9250    -1.1500 ca         1 7TP       0.144100
     42 OAF         -5.8150    -5.0820    -0.8030 oh         1 7TP      -0.535100
     43 CAI         -5.7730    -2.6780    -0.9040 ca         1 7TP      -0.167500
     44 CAK         -5.0990    -1.5280    -1.2840 ca         1 7TP      -0.058000
     45 H1           4.3660     1.9170     4.4700 h1         1 7TP       0.045367
     46 H2           4.1490     0.1650     4.3080 h1         1 7TP       0.045367
     47 H3           4.2830     1.1850     2.8570 h1         1 7TP       0.045367
     48 H4          -0.0110     1.7440     3.8560 ha         1 7TP       0.126000
     49 H5          -1.6280     0.4330     2.5590 ha         1 7TP       0.132500
     50 H6           3.1570    -0.8040     2.4500 ha         1 7TP       0.126000
     51 H7           1.5560    -2.0900     1.1690 ha         1 7TP       0.132500
     52 H8           0.4560    -1.8300    -1.5190 h1         1 7TP       0.068700
     53 H9          -0.2630    -0.6600    -2.5660 h1         1 7TP       0.068700
     54 H10          2.5840    -1.1860    -1.5340 ha         1 7TP       0.125000
     55 H11          6.0120     1.5360     0.5210 ha         1 7TP       0.142000
     56 H12          8.0140    -0.1420    -0.1800 ha         1 7TP       0.155000
     57 H13          6.2100    -3.0140    -2.3610 h4         1 7TP       0.009200
     58 H16          3.8220     2.4020     0.4510 ha         1 7TP       0.115000
     59 H17          1.5460     3.1310     0.5540 ha         1 7TP       0.117000
     60 H18         -0.4470     2.9220     1.3920 h1         1 7TP       0.053200
     61 H19         -0.3870     3.9360    -0.0320 h1         1 7TP       0.053200
     62 H20         -3.1520     1.9730     2.0840 h4         1 7TP       0.046100
     63 H21         -5.0310     4.9470    -0.1430 h5         1 7TP       0.057100
     64 H22         -1.7650     5.9220    -0.6430 h1         1 7TP       0.055367
     65 H23         -1.9080     4.6770    -1.8940 h1         1 7TP       0.055367
     66 H24         -3.2550     5.7720    -1.5840 h1         1 7TP       0.055367
     67 H25         -2.2970     2.2160    -1.5500 h1         1 7TP       0.052700
     68 H26         -1.0160     1.3980    -2.3860 h1         1 7TP       0.052700
     69 H27         -2.8620     0.3060    -0.2190 h1         1 7TP       0.090700
     70 H28         -3.8130     0.4760    -2.4840 hc         1 7TP       0.046700
     71 H29         -2.4950    -0.4720    -3.1410 hc         1 7TP       0.046700
     72 H30         -2.3510    -2.9210    -2.6480 ha         1 7TP       0.111500
     73 H31         -3.5280    -4.9700    -1.9820 ha         1 7TP       0.121500
     74 H32         -6.6570    -4.8990    -0.3710 ho         1 7TP       0.463000
     75 H33         -6.7380    -2.6000    -0.4140 ha         1 7TP       0.121500
     76 H34         -5.5510    -0.5650    -1.0790 ha         1 7TP       0.111500
@<TRIPOS>BOND
     1     1     2 1   
     2     1    45 1   
     3     1    46 1   
     4     1    47 1   
     5     2     3 1   
     6     3     4 ar  
     7     3     6 ar  
     8     4     5 ar  
     9     4    48 1   
    10     5     8 ar  
    11     5    49 1   
    12     6     7 ar  
    13     6    50 1   
    14     7     8 ar  
    15     7    51 1   
    16     8     9 1   
    17     9    10 2   
    18     9    11 2   
    19     9    12 1   
    20    12    13 1   
    21    12    36 1   
    22    13    14 1   
    23    13    52 1   
    24    13    53 1   
    25    14    15 ar  
    26    14    26 ar  
    27    15    16 ar  
    28    15    54 1   
    29    16    17 1   
    30    16    24 ar  
    31    17    18 1   
    32    17    19 2   
    33    18    21 1   
    34    19    20 1   
    35    19    55 1   
    36    20    21 2   
    37    20    56 1   
    38    21    22 1   
    39    22    23 2   
    40    22    57 1   
    41    24    25 ar  
    42    24    58 1   
    43    25    26 ar  
    44    25    59 1   
    45    26    27 1   
    46    27    28 1   
    47    27    35 1   
    48    28    29 1   
    49    28    60 1   
    50    28    61 1   
    51    29    30 2   
    52    29    33 1   
    53    30    31 1   
    54    30    62 1   
    55    31    32 2   
    56    32    33 1   
    57    32    63 1   
    58    33    34 1   
    59    34    64 1   
    60    34    65 1   
    61    34    66 1   
    62    35    36 1   
    63    35    67 1   
    64    35    68 1   
    65    36    37 1   
    66    36    69 1   
    67    37    38 1   
    68    37    70 1   
    69    37    71 1   
    70    38    39 ar  
    71    38    44 ar  
    72    39    40 ar  
    73    39    72 1   
    74    40    41 ar  
    75    40    73 1   
    76    41    42 1   
    77    41    43 ar  
    78    42    74 1   
    79    43    44 ar  
    80    43    75 1   
    81    44    76 1   
@<TRIPOS>SUBSTRUCTURE
     1 7TP         1 TEMP              0 ****  ****    0 ROOT
