@<TRIPOS>MOLECULE
7TQ
   85    90     1     0     0
SMALL
No Charge or Current Charge


@<TRIPOS>ATOM
      1 CAA          5.3320     5.6940    -1.4520 c3         1 7TQ       0.145900
      2 OBG          5.2290     4.3480    -1.9480 os         1 7TQ      -0.338100
      3 CBM          4.1700     3.5240    -1.6270 ca         1 7TQ       0.194100
      4 CAS          4.1840     2.2160    -2.1320 ca         1 7TQ      -0.202500
      5 CAU          3.1430     1.3240    -1.8290 ca         1 7TQ       0.031000
      6 CAR          3.0950     3.9480    -0.8170 ca         1 7TQ      -0.202500
      7 CAT          2.0490     3.0600    -0.5110 ca         1 7TQ       0.031000
      8 CBP          2.0780     1.7440    -1.0100 ca         1 7TQ      -0.339500
      9 SBW          0.7700     0.5830    -0.5870 sy         1 7TQ       1.195600
     10 OAE         -0.4040     1.3030    -0.0830 o          1 7TQ      -0.538000
     11 OAF          0.6750    -0.3570    -1.7090 o          1 7TQ      -0.538000
     12 NBU          1.4230    -0.2780     0.7340 n3         1 7TQ      -0.758500
     13 CBB          2.3690     0.3820     1.6450 c3         1 7TQ       0.264100
     14 CBO          3.8240     0.4290     1.1670 ca         1 7TQ      -0.195300
     15 CAY          4.5280     1.6270     1.4250 ca         1 7TQ      -0.024000
     16 CBJ          5.8570     1.7950     1.0070 ca         1 7TQ      -0.079000
     17 CAG          6.5450     3.0290     1.2640 cg         1 7TQ       0.332000
     18 NAC          7.1050     4.0300     1.4850 n1         1 7TQ      -0.463000
     19 CAM          6.5060     0.7520     0.3360 ca         1 7TQ      -0.024000
     20 CAV          5.8240    -0.4470     0.0830 ca         1 7TQ      -0.201000
     21 CBR          4.4800    -0.6330     0.4780 ca         1 7TQ       0.375000
     22 NBT          3.8510    -1.8720     0.1680 nh         1 7TQ      -0.824400
     23 CBC          4.2490    -2.6510    -1.0320 c3         1 7TQ       0.303100
     24 CBQ          3.1930    -3.5550    -1.6150 cc         1 7TQ      -0.246300
     25 CAW          2.2070    -3.2430    -2.5150 cd         1 7TQ       0.265900
     26 NBE          1.4500    -4.3560    -2.8190 nd         1 7TQ      -0.665000
     27 CAX          1.9750    -5.3490    -2.1160 cc         1 7TQ       0.403400
     28 NBV          3.0520    -4.9100    -1.3730 na         1 7TQ      -0.166500
     29 CAB          3.8980    -5.7480    -0.5060 c3         1 7TQ       0.053900
     30 CBD          2.7580    -2.4030     1.0260 c3         1 7TQ       0.206800
     31 CBS          1.3610    -1.7630     0.7710 c3         1 7TQ       0.230500
     32 CBA          0.3290    -2.2760     1.8050 c3         1 7TQ      -0.029100
     33 CBL         -1.1020    -1.8700     1.4690 ca         1 7TQ      -0.083300
     34 CAO         -1.7580    -0.8770     2.2240 ca         1 7TQ      -0.087000
     35 CAQ         -3.0730    -0.4970     1.9060 ca         1 7TQ      -0.098500
     36 CAN         -1.7750    -2.4750     0.3900 ca         1 7TQ      -0.087000
     37 CAP         -3.0900    -2.0950     0.0710 ca         1 7TQ      -0.098500
     38 CBN         -3.7460    -1.1160     0.8350 ca         1 7TQ       0.126100
     39 OBH         -5.0250    -0.7490     0.4830 os         1 7TQ      -0.370200
     40 CBI         -6.0410    -0.5520     1.3720 c          1 7TQ       0.637100
     41 OAD         -6.0110    -0.8080     2.5650 o          1 7TQ      -0.527000
     42 NBF         -7.1420    -0.1080     0.6990 ns         1 7TQ      -0.497900
     43 CAZ         -8.4300     0.1680     1.3240 c3         1 7TQ       0.163300
     44 CBK         -9.4380     0.6680     0.3000 ca         1 7TQ      -0.116300
     45 CAK        -10.2580    -0.2430    -0.3930 ca         1 7TQ      -0.092500
     46 CAI        -11.1860     0.2190    -1.3420 ca         1 7TQ      -0.113000
     47 CAH        -11.2990     1.5950    -1.6040 ca         1 7TQ      -0.101000
     48 CAJ        -10.4810     2.5080    -0.9170 ca         1 7TQ      -0.113000
     49 CAL         -9.5520     2.0460     0.0320 ca         1 7TQ      -0.092500
     50 H1           4.4830     6.3010    -1.7920 h1         1 7TQ       0.046033
     51 H2           5.3550     5.7040    -0.3550 h1         1 7TQ       0.046033
     52 H3           6.2530     6.1640    -1.8160 h1         1 7TQ       0.046033
     53 H4           5.0120     1.8870    -2.7520 ha         1 7TQ       0.127000
     54 H5           3.1800     0.3060    -2.2120 ha         1 7TQ       0.133000
     55 H6           3.0550     4.9540    -0.4130 ha         1 7TQ       0.127000
     56 H7           1.2300     3.3960     0.1230 ha         1 7TQ       0.133000
     57 H8           2.0200     1.4050     1.8400 h1         1 7TQ       0.070700
     58 H9           2.3530    -0.1180     2.6230 h1         1 7TQ       0.070700
     59 H10          4.0300     2.4440     1.9460 ha         1 7TQ       0.125000
     60 H11          7.5390     0.8640     0.0120 ha         1 7TQ       0.121000
     61 H12          6.3630    -1.2410    -0.4230 ha         1 7TQ       0.119000
     62 H13          4.5490    -1.9560    -1.8280 h1         1 7TQ       0.055700
     63 H14          5.1350    -3.2560    -0.7920 h1         1 7TQ       0.055700
     64 H15          2.0040    -2.2790    -2.9660 h4         1 7TQ       0.044100
     65 H16          1.6420    -6.3800    -2.1060 h5         1 7TQ       0.058100
     66 H17          4.8320    -5.9880    -1.0280 h1         1 7TQ       0.055700
     67 H18          4.1310    -5.2120     0.4220 h1         1 7TQ       0.055700
     68 H19          3.3730    -6.6790    -0.2600 h1         1 7TQ       0.055700
     69 H20          2.6700    -3.4910     0.9170 h1         1 7TQ       0.054200
     70 H21          3.0320    -2.2450     2.0770 h1         1 7TQ       0.054200
     71 H22          1.0400    -2.1570    -0.2010 h1         1 7TQ       0.088700
     72 H23          0.3880    -3.3710     1.8510 hc         1 7TQ       0.049700
     73 H24          0.6090    -1.9170     2.8030 hc         1 7TQ       0.049700
     74 H25         -1.2440    -0.3900     3.0500 ha         1 7TQ       0.114000
     75 H26         -3.5600     0.2830     2.4850 ha         1 7TQ       0.127000
     76 H27         -1.2780    -3.2370    -0.2070 ha         1 7TQ       0.114000
     77 H28         -3.6030    -2.5600    -0.7660 ha         1 7TQ       0.127000
     78 H29         -7.0380     0.0360    -0.2960 hn         1 7TQ       0.333500
     79 H30         -8.8030    -0.7510     1.7960 h1         1 7TQ       0.058700
     80 H31         -8.2920     0.9210     2.1110 h1         1 7TQ       0.058700
     81 H32        -10.1760    -1.3110    -0.1980 ha         1 7TQ       0.117000
     82 H33        -11.8180    -0.4890    -1.8750 ha         1 7TQ       0.114500
     83 H34        -12.0170     1.9530    -2.3390 ha         1 7TQ       0.114000
     84 H35        -10.5660     3.5740    -1.1200 ha         1 7TQ       0.114500
     85 H36         -8.9210     2.7600     0.5580 ha         1 7TQ       0.117000
@<TRIPOS>BOND
     1     1     2 1   
     2     1    50 1   
     3     1    51 1   
     4     1    52 1   
     5     2     3 1   
     6     3     4 ar  
     7     3     6 ar  
     8     4     5 ar  
     9     4    53 1   
    10     5     8 ar  
    11     5    54 1   
    12     6     7 ar  
    13     6    55 1   
    14     7     8 ar  
    15     7    56 1   
    16     8     9 1   
    17     9    10 2   
    18     9    11 2   
    19     9    12 1   
    20    12    13 1   
    21    12    31 1   
    22    13    14 1   
    23    13    57 1   
    24    13    58 1   
    25    14    15 ar  
    26    14    21 ar  
    27    15    16 ar  
    28    15    59 1   
    29    16    17 1   
    30    16    19 ar  
    31    17    18 3   
    32    19    20 ar  
    33    19    60 1   
    34    20    21 ar  
    35    20    61 1   
    36    21    22 1   
    37    22    23 1   
    38    22    30 1   
    39    23    24 1   
    40    23    62 1   
    41    23    63 1   
    42    24    25 2   
    43    24    28 1   
    44    25    26 1   
    45    25    64 1   
    46    26    27 2   
    47    27    28 1   
    48    27    65 1   
    49    28    29 1   
    50    29    66 1   
    51    29    67 1   
    52    29    68 1   
    53    30    31 1   
    54    30    69 1   
    55    30    70 1   
    56    31    32 1   
    57    31    71 1   
    58    32    33 1   
    59    32    72 1   
    60    32    73 1   
    61    33    34 ar  
    62    33    36 ar  
    63    34    35 ar  
    64    34    74 1   
    65    35    38 ar  
    66    35    75 1   
    67    36    37 ar  
    68    36    76 1   
    69    37    38 ar  
    70    37    77 1   
    71    38    39 1   
    72    39    40 1   
    73    40    41 2   
    74    40    42 1   
    75    42    43 1   
    76    42    78 1   
    77    43    44 1   
    78    43    79 1   
    79    43    80 1   
    80    44    45 ar  
    81    44    49 ar  
    82    45    46 ar  
    83    45    81 1   
    84    46    47 ar  
    85    46    82 1   
    86    47    48 ar  
    87    47    83 1   
    88    48    49 ar  
    89    48    84 1   
    90    49    85 1   
@<TRIPOS>SUBSTRUCTURE
     1 7TQ         1 TEMP              0 ****  ****    0 ROOT
