@<TRIPOS>MOLECULE
7TQ
   85    90     1     0     0
SMALL
bcc


@<TRIPOS>ATOM
      1 CAA          6.5780     3.4610    -2.5530 c3         1 7TQ       0.122700
      2 OBG          5.6540     2.4830    -2.9960 os         1 7TQ      -0.314900
      3 CBM          4.5210     2.3070    -2.3080 ca         1 7TQ       0.194100
      4 CAS          3.6730     1.2920    -2.7660 ca         1 7TQ      -0.220500
      5 CAU          2.5000     1.0150    -2.0980 ca         1 7TQ       0.013000
      6 CAR          4.1510     3.0670    -1.1990 ca         1 7TQ      -0.220500
      7 CAT          2.9710     2.7840    -0.5330 ca         1 7TQ       0.013000
      8 CBP          2.1530     1.7530    -0.9710 ca         1 7TQ      -0.339500
      9 SBW          0.7350     1.2830    -0.0370 sy         1 7TQ       1.337200
     10 OAE          0.3430     2.4310     0.7670 o          1 7TQ      -0.608800
     11 OAF         -0.2220     0.6730    -0.9450 o          1 7TQ      -0.608800
     12 NBU          1.2250     0.1060     1.0070 n3         1 7TQ      -0.758500
     13 CBB          2.1080     0.4680     2.0990 c3         1 7TQ       0.264100
     14 CBO          3.5670     0.6110     1.7070 ca         1 7TQ      -0.195300
     15 CAY          4.2620     1.6520     2.2870 ca         1 7TQ      -0.042000
     16 CBJ          5.5750     1.9570     1.9290 ca         1 7TQ      -0.079000
     17 CAG          6.2500     3.0520     2.5320 cg         1 7TQ       0.242800
     18 NAC          6.8010     3.9420     3.0190 n1         1 7TQ      -0.373800
     19 CAM          6.1950     1.1960     0.9420 ca         1 7TQ      -0.042000
     20 CAV          5.5230     0.1450     0.3600 ca         1 7TQ      -0.219000
     21 CBR          4.2080    -0.1960     0.7300 ca         1 7TQ       0.236600
     22 NBT          3.5760    -1.2600     0.1390 nh         1 7TQ      -0.686000
     23 CBC          4.2340    -1.9200    -0.9880 c3         1 7TQ       0.303100
     24 CBQ          3.3820    -2.9150    -1.6930 cc         1 7TQ      -0.260900
     25 CAW          2.4360    -2.7710    -2.6720 cd         1 7TQ       0.331200
     26 NBE          1.9230    -3.9800    -3.0300 nd         1 7TQ      -0.665000
     27 CAX          2.5500    -4.8530    -2.2820 cc         1 7TQ       0.403400
     28 NBV          3.4410    -4.2680    -1.4570 na         1 7TQ      -0.187900
     29 CAB          4.3080    -4.9500    -0.5220 c3         1 7TQ       0.024600
     30 CBD          2.5280    -1.9500     0.8610 c3         1 7TQ       0.206800
     31 CBS          1.1600    -1.3090     0.6570 c3         1 7TQ       0.230500
     32 CBA          0.0980    -2.0320     1.4950 c3         1 7TQ      -0.029100
     33 CBL         -1.2840    -1.5040     1.2530 ca         1 7TQ      -0.083300
     34 CAO         -1.7830    -0.4390     1.9940 ca         1 7TQ      -0.105000
     35 CAQ         -3.0480     0.0750     1.7470 ca         1 7TQ      -0.116500
     36 CAN         -2.0790    -2.0410     0.2440 ca         1 7TQ      -0.105000
     37 CAP         -3.3440    -1.5390    -0.0160 ca         1 7TQ      -0.116500
     38 CBN         -3.8180    -0.4810     0.7420 ca         1 7TQ       0.126100
     39 OBH         -5.0630     0.0530     0.4730 os         1 7TQ      -0.370200
     40 CBI         -6.1300    -0.5510     1.0500 c          1 7TQ       0.753100
     41 OAD         -6.0380    -1.5320     1.7520 o          1 7TQ      -0.576000
     42 NBF         -7.2630     0.0800     0.7170 ns         1 7TQ      -0.564900
     43 CAZ         -8.5460    -0.3050     1.2690 c3         1 7TQ       0.163300
     44 CBK         -9.6640     0.1650     0.3780 ca         1 7TQ      -0.116300
     45 CAK         -9.7910    -0.3380    -0.9160 ca         1 7TQ      -0.110500
     46 CAI        -10.8210     0.0890    -1.7390 ca         1 7TQ      -0.131000
     47 CAH        -11.7400     1.0270    -1.2790 ca         1 7TQ      -0.119000
     48 CAJ        -11.6200     1.5320     0.0070 ca         1 7TQ      -0.131000
     49 CAL        -10.5840     1.1040     0.8290 ca         1 7TQ      -0.110500
     50 H1           6.1570     4.4690    -2.5970 h1         1 7TQ       0.046033
     51 H2           6.9200     3.2630    -1.5340 h1         1 7TQ       0.046033
     52 H3           7.4290     3.4070    -3.2250 h1         1 7TQ       0.046033
     53 H4           3.9470     0.7270    -3.6470 ha         1 7TQ       0.145000
     54 H5           1.8540     0.2300    -2.4640 ha         1 7TQ       0.151000
     55 H6           4.7710     3.8730    -0.8300 ha         1 7TQ       0.145000
     56 H7           2.7020     3.3770     0.3290 ha         1 7TQ       0.151000
     57 H8           1.7690     1.4050     2.5380 h1         1 7TQ       0.070700
     58 H9           1.9740    -0.2750     2.8870 h1         1 7TQ       0.070700
     59 H10          3.7580     2.2760     3.0160 ha         1 7TQ       0.143000
     60 H11          7.2090     1.4160     0.6350 ha         1 7TQ       0.139000
     61 H12          6.0520    -0.4320    -0.3830 ha         1 7TQ       0.137000
     62 H13          4.5140    -1.1510    -1.7100 h1         1 7TQ       0.055700
     63 H14          5.1670    -2.4010    -0.6700 h1         1 7TQ       0.055700
     64 H15          2.1100    -1.8570    -3.1450 h4         1 7TQ       0.044100
     65 H16          2.4040    -5.9230    -2.2960 h5         1 7TQ       0.058100
     66 H17          5.3530    -4.7520    -0.7480 h1         1 7TQ       0.055700
     67 H18          4.1030    -4.6390     0.5010 h1         1 7TQ       0.055700
     68 H19          4.1320    -6.0200    -0.5970 h1         1 7TQ       0.055700
     69 H20          2.4600    -2.9810     0.5220 h1         1 7TQ       0.054200
     70 H21          2.7800    -2.0160     1.9230 h1         1 7TQ       0.054200
     71 H22          0.9010    -1.4030    -0.3990 h1         1 7TQ       0.088700
     72 H23          0.1410    -3.0960     1.2510 hc         1 7TQ       0.049700
     73 H24          0.3560    -1.9460     2.5550 hc         1 7TQ       0.049700
     74 H25         -1.1850    -0.0090     2.7880 ha         1 7TQ       0.132000
     75 H26         -3.4310     0.9000     2.3340 ha         1 7TQ       0.145000
     76 H27         -1.7090    -2.8710    -0.3460 ha         1 7TQ       0.132000
     77 H28         -3.9550    -1.9680    -0.8000 ha         1 7TQ       0.145000
     78 H29         -7.2030     0.9610     0.2290 hn         1 7TQ       0.333500
     79 H30         -8.5730    -1.3920     1.3530 h1         1 7TQ       0.058700
     80 H31         -8.6780     0.0970     2.2780 h1         1 7TQ       0.058700
     81 H32         -9.0810    -1.0710    -1.2810 ha         1 7TQ       0.135000
     82 H33        -10.9110    -0.3100    -2.7410 ha         1 7TQ       0.132500
     83 H34        -12.5440     1.3600    -1.9220 ha         1 7TQ       0.132000
     84 H35        -12.3300     2.2630     0.3730 ha         1 7TQ       0.132500
     85 H36        -10.4920     1.5040     1.8320 ha         1 7TQ       0.135000
@<TRIPOS>BOND
     1     1     2 1   
     2     1    50 1   
     3     1    51 1   
     4     1    52 1   
     5     2     3 1   
     6     3     4 ar  
     7     3     6 ar  
     8     4     5 ar  
     9     4    53 1   
    10     5     8 ar  
    11     5    54 1   
    12     6     7 ar  
    13     6    55 1   
    14     7     8 ar  
    15     7    56 1   
    16     8     9 1   
    17     9    10 2   
    18     9    11 2   
    19     9    12 1   
    20    12    13 1   
    21    12    31 1   
    22    13    14 1   
    23    13    57 1   
    24    13    58 1   
    25    14    15 ar  
    26    14    21 ar  
    27    15    16 ar  
    28    15    59 1   
    29    16    17 1   
    30    16    19 ar  
    31    17    18 3   
    32    19    20 ar  
    33    19    60 1   
    34    20    21 ar  
    35    20    61 1   
    36    21    22 1   
    37    22    23 1   
    38    22    30 1   
    39    23    24 1   
    40    23    62 1   
    41    23    63 1   
    42    24    25 2   
    43    24    28 1   
    44    25    26 1   
    45    25    64 1   
    46    26    27 2   
    47    27    28 1   
    48    27    65 1   
    49    28    29 1   
    50    29    66 1   
    51    29    67 1   
    52    29    68 1   
    53    30    31 1   
    54    30    69 1   
    55    30    70 1   
    56    31    32 1   
    57    31    71 1   
    58    32    33 1   
    59    32    72 1   
    60    32    73 1   
    61    33    34 ar  
    62    33    36 ar  
    63    34    35 ar  
    64    34    74 1   
    65    35    38 ar  
    66    35    75 1   
    67    36    37 ar  
    68    36    76 1   
    69    37    38 ar  
    70    37    77 1   
    71    38    39 1   
    72    39    40 1   
    73    40    41 2   
    74    40    42 1   
    75    42    43 1   
    76    42    78 1   
    77    43    44 1   
    78    43    79 1   
    79    43    80 1   
    80    44    45 ar  
    81    44    49 ar  
    82    45    46 ar  
    83    45    81 1   
    84    46    47 ar  
    85    46    82 1   
    86    47    48 ar  
    87    47    83 1   
    88    48    49 ar  
    89    48    84 1   
    90    49    85 1   
@<TRIPOS>SUBSTRUCTURE
     1 7TQ         1 TEMP              0 ****  ****    0 ROOT
