@<TRIPOS>MOLECULE
7TR
   84    88     1     0     0
SMALL
bcc


@<TRIPOS>ATOM
      1 CAA         -8.0020     2.5670    -1.5520 c3         1 7TR      -0.116600
      2 CAW         -8.2490     1.8090    -0.2570 c3         1 7TR       0.116500
      3 NBP         -8.1970     0.3560    -0.3900 n          1 7TR      -0.470800
      4 CAX         -9.4390    -0.3820    -0.5800 c3         1 7TR       0.116500
      5 CAB         -9.8520    -0.5400    -2.0360 c3         1 7TR      -0.116600
      6 CBF         -7.0430    -0.3210    -0.4940 c          1 7TR       0.756100
      7 OAF         -6.9290    -1.5100    -0.7010 o          1 7TR      -0.567000
      8 OBE         -5.9710     0.4880    -0.3190 os         1 7TR      -0.376200
      9 CBJ         -4.7210    -0.0780    -0.4370 ca         1 7TR       0.116100
     10 CAN         -4.0650    -0.5250     0.6980 ca         1 7TR      -0.132000
     11 CAL         -2.7750    -1.0200     0.5860 ca         1 7TR      -0.115500
     12 CAM         -4.1080    -0.1320    -1.6760 ca         1 7TR      -0.132000
     13 CAK         -2.8160    -0.6290    -1.7730 ca         1 7TR      -0.115500
     14 CBH         -2.1290    -1.0760    -0.6470 ca         1 7TR      -0.087300
     15 CAY         -0.7000    -1.5370    -0.7390 c3         1 7TR      -0.030100
     16 CBO          0.2450    -0.5290    -0.0810 c3         1 7TR       0.215500
     17 CBB          0.1420     0.8560    -0.7120 c3         1 7TR       0.207800
     18 NBQ          1.0960     1.7870    -0.1570 nh         1 7TR      -0.700000
     19 CBA          0.6050     2.7690     0.8010 c3         1 7TR       0.314100
     20 CBM         -0.2740     2.1570     1.8410 cc         1 7TR      -0.270900
     21 CAT          0.0630     1.4190     2.9450 cd         1 7TR       0.332200
     22 NBC         -1.0510     1.0400     3.6290 nd         1 7TR      -0.663000
     23 CAU         -2.0550     1.5420     2.9550 cc         1 7TR       0.394400
     24 NBS         -1.6460     2.2290     1.8680 na         1 7TR      -0.182900
     25 CAD         -2.5210     2.8760     0.9160 c3         1 7TR       0.024600
     26 CBN          2.3410     1.8990    -0.7090 ca         1 7TR       0.257600
     27 CAS          3.0280     3.1260    -0.6910 ca         1 7TR      -0.209000
     28 CAJ          4.2900     3.2590    -1.2260 ca         1 7TR      -0.035000
     29 CBG          4.9140     2.1620    -1.8170 ca         1 7TR      -0.078000
     30 CAI          6.2170     2.2810    -2.3710 cg         1 7TR       0.247800
     31 NAE          7.2750     2.3790    -2.8220 n1         1 7TR      -0.381800
     32 CAV          4.2450     0.9360    -1.8410 ca         1 7TR      -0.040000
     33 CBK          2.9830     0.7840    -1.3050 ca         1 7TR      -0.197300
     34 CAZ          2.3900    -0.6100    -1.3260 c3         1 7TR       0.258100
     35 NBR          1.6330    -0.9960    -0.1480 n3         1 7TR      -0.749500
     36 SBT          2.4640    -1.1780     1.2750 sy         1 7TR       1.313200
     37 OAG          3.1500     0.0370     1.6970 o          1 7TR      -0.611800
     38 OAH          1.5280    -1.7860     2.2120 o          1 7TR      -0.611800
     39 CBL          3.6880    -2.3530     0.8100 ca         1 7TR      -0.328500
     40 CAQ          3.2970    -3.6580     0.5170 ca         1 7TR       0.011000
     41 CAO          4.2450    -4.5860     0.1500 ca         1 7TR      -0.219500
     42 CBI          5.5970    -4.2230     0.0710 ca         1 7TR       0.197100
     43 OBD          6.4420    -5.1880    -0.2990 os         1 7TR      -0.310900
     44 CAC          7.8230    -4.8860    -0.4080 c3         1 7TR       0.122700
     45 CAP          5.9790    -2.9150     0.3690 ca         1 7TR      -0.219500
     46 CAR          5.0210    -1.9840     0.7390 ca         1 7TR       0.011000
     47 H1          -8.7470     2.3210    -2.3080 hc         1 7TR       0.043033
     48 H2          -8.0630     3.6400    -1.3660 hc         1 7TR       0.043033
     49 H3          -7.0150     2.3570    -1.9630 hc         1 7TR       0.043033
     50 H4          -7.5470     2.1350     0.5100 h1         1 7TR       0.054700
     51 H5          -9.2420     2.0510     0.1210 h1         1 7TR       0.054700
     52 H6          -9.3400    -1.3610    -0.1140 h1         1 7TR       0.054700
     53 H7         -10.2160     0.1470    -0.0270 h1         1 7TR       0.054700
     54 H8         -10.7710    -1.1250    -2.0970 hc         1 7TR       0.043033
     55 H9         -10.0420     0.4220    -2.5110 hc         1 7TR       0.043033
     56 H10         -9.0870    -1.0600    -2.6110 hc         1 7TR       0.043033
     57 H11         -4.5520    -0.4770     1.6640 ha         1 7TR       0.145000
     58 H12         -2.2660    -1.3600     1.4810 ha         1 7TR       0.143000
     59 H13         -4.6250     0.2220    -2.5590 ha         1 7TR       0.145000
     60 H14         -2.3340    -0.6640    -2.7430 ha         1 7TR       0.143000
     61 H15         -0.5730    -2.5000    -0.2390 hc         1 7TR       0.062700
     62 H16         -0.4230    -1.6820    -1.7870 hc         1 7TR       0.062700
     63 H17         -0.0360    -0.4330     0.9680 h1         1 7TR       0.090700
     64 H18          0.2570     0.8050    -1.7990 h1         1 7TR       0.055700
     65 H19         -0.8630     1.2410    -0.5560 h1         1 7TR       0.055700
     66 H20          1.4620     3.2000     1.3160 h1         1 7TR       0.056700
     67 H21          0.0920     3.5970     0.2980 h1         1 7TR       0.056700
     68 H22          1.0570     1.1410     3.2600 h4         1 7TR       0.057100
     69 H23         -3.1000     1.4520     3.2110 h5         1 7TR       0.054100
     70 H24         -2.6450     2.2750     0.0160 h1         1 7TR       0.054700
     71 H25         -3.4980     3.0150     1.3710 h1         1 7TR       0.054700
     72 H26         -2.1300     3.8520     0.6390 h1         1 7TR       0.054700
     73 H27          2.5580     4.0070    -0.2760 ha         1 7TR       0.136000
     74 H28          4.7830     4.2210    -1.2020 ha         1 7TR       0.141000
     75 H29          4.7400     0.0720    -2.2690 ha         1 7TR       0.135000
     76 H30          1.7250    -0.7450    -2.1820 h1         1 7TR       0.063700
     77 H31          3.1940    -1.3300    -1.4840 h1         1 7TR       0.063700
     78 H32          2.2560    -3.9520     0.5670 ha         1 7TR       0.156000
     79 H33          3.9530    -5.6020    -0.0820 ha         1 7TR       0.147000
     80 H34          8.3110    -5.8030    -0.7280 h1         1 7TR       0.047033
     81 H35          8.0080    -4.1080    -1.1510 h1         1 7TR       0.047033
     82 H36          8.2470    -4.5760     0.5490 h1         1 7TR       0.047033
     83 H37          7.0130    -2.6010     0.3200 ha         1 7TR       0.147000
     84 H38          5.3280    -0.9720     0.9650 ha         1 7TR       0.156000
@<TRIPOS>BOND
     1     1     2 1   
     2     1    47 1   
     3     1    48 1   
     4     1    49 1   
     5     2     3 1   
     6     2    50 1   
     7     2    51 1   
     8     3     4 1   
     9     3     6 1   
    10     4     5 1   
    11     4    52 1   
    12     4    53 1   
    13     5    54 1   
    14     5    55 1   
    15     5    56 1   
    16     6     7 2   
    17     6     8 1   
    18     8     9 1   
    19     9    10 ar  
    20     9    12 ar  
    21    10    11 ar  
    22    10    57 1   
    23    11    14 ar  
    24    11    58 1   
    25    12    13 ar  
    26    12    59 1   
    27    13    14 ar  
    28    13    60 1   
    29    14    15 1   
    30    15    16 1   
    31    15    61 1   
    32    15    62 1   
    33    16    17 1   
    34    16    35 1   
    35    16    63 1   
    36    17    18 1   
    37    17    64 1   
    38    17    65 1   
    39    18    19 1   
    40    18    26 1   
    41    19    20 1   
    42    19    66 1   
    43    19    67 1   
    44    20    21 2   
    45    20    24 1   
    46    21    22 1   
    47    21    68 1   
    48    22    23 2   
    49    23    24 1   
    50    23    69 1   
    51    24    25 1   
    52    25    70 1   
    53    25    71 1   
    54    25    72 1   
    55    26    27 ar  
    56    26    33 ar  
    57    27    28 ar  
    58    27    73 1   
    59    28    29 ar  
    60    28    74 1   
    61    29    30 1   
    62    29    32 ar  
    63    30    31 3   
    64    32    33 ar  
    65    32    75 1   
    66    33    34 1   
    67    34    35 1   
    68    34    76 1   
    69    34    77 1   
    70    35    36 1   
    71    36    37 2   
    72    36    38 2   
    73    36    39 1   
    74    39    40 ar  
    75    39    46 ar  
    76    40    41 ar  
    77    40    78 1   
    78    41    42 ar  
    79    41    79 1   
    80    42    43 1   
    81    42    45 ar  
    82    43    44 1   
    83    44    80 1   
    84    44    81 1   
    85    44    82 1   
    86    45    46 ar  
    87    45    83 1   
    88    46    84 1   
@<TRIPOS>SUBSTRUCTURE
     1 7TR         1 TEMP              0 ****  ****    0 ROOT
