@<TRIPOS>MOLECULE
7TR
   84    88     1     0     0
SMALL
No Charge or Current Charge


@<TRIPOS>ATOM
      1 CAA         -8.4140     2.7230    -1.7730 c3         1 7TR      -0.116600
      2 CAW         -8.1480     2.3250    -0.3090 c3         1 7TR       0.116500
      3 NBP         -8.3110     0.8700    -0.0580 n          1 7TR      -0.403800
      4 CAX         -9.6030     0.4080     0.5030 c3         1 7TR       0.116500
      5 CAB        -10.6160    -0.0130    -0.5770 c3         1 7TR      -0.116600
      6 CBF         -7.2270    -0.0290    -0.1700 c          1 7TR       0.640100
      7 OAF         -7.3160    -1.2230     0.0780 o          1 7TR      -0.518000
      8 OBE         -6.1140     0.5630    -0.7080 os         1 7TR      -0.376200
      9 CBJ         -4.8940    -0.0540    -0.8470 ca         1 7TR       0.116100
     10 CAN         -4.3260    -0.7990     0.2030 ca         1 7TR      -0.114000
     11 CAL         -3.0530    -1.3740     0.0480 ca         1 7TR      -0.097500
     12 CAM         -4.1810     0.1230    -2.0430 ca         1 7TR      -0.114000
     13 CAK         -2.9100    -0.4580    -2.2010 ca         1 7TR      -0.097500
     14 CBH         -2.3380    -1.2060    -1.1530 ca         1 7TR      -0.087300
     15 CAY         -0.9300    -1.7770    -1.2890 c3         1 7TR      -0.030100
     16 CBO          0.1080    -0.9490    -0.4960 c3         1 7TR       0.215500
     17 CBB          0.1590     0.5220    -1.0200 c3         1 7TR       0.207800
     18 NBQ          1.1470     1.3900    -0.3380 nh         1 7TR      -0.838400
     19 CBA          0.6630     2.2590     0.7680 c3         1 7TR       0.314100
     20 CBM         -0.5810     1.7900     1.4860 cc         1 7TR      -0.256300
     21 CAT         -0.6630     0.9810     2.5900 cd         1 7TR       0.266900
     22 NBC         -1.9780     0.7910     2.9640 nd         1 7TR      -0.663000
     23 CAU         -2.7000     1.4850     2.0970 cc         1 7TR       0.394400
     24 NBS         -1.8910     2.1260     1.1810 na         1 7TR      -0.161500
     25 CAD         -2.3640     3.0040     0.0980 c3         1 7TR       0.053900
     26 CBN          2.5350     1.2940    -0.6420 ca         1 7TR       0.396000
     27 CAS          3.3520     2.4210    -0.4050 ca         1 7TR      -0.191000
     28 CAJ          4.7300     2.4010    -0.6680 ca         1 7TR      -0.017000
     29 CBG          5.3240     1.2460    -1.1930 ca         1 7TR      -0.078000
     30 CAI          6.7350     1.2100    -1.4560 cg         1 7TR       0.337000
     31 NAE          7.8830     1.1710    -1.6630 n1         1 7TR      -0.471000
     32 CAV          4.5280     0.1210    -1.4590 ca         1 7TR      -0.022000
     33 CBK          3.1430     0.1210    -1.1830 ca         1 7TR      -0.197300
     34 CAZ          2.3900    -1.1760    -1.5010 c3         1 7TR       0.258100
     35 NBR          1.4340    -1.6200    -0.4710 n3         1 7TR      -0.749500
     36 SBT          2.0320    -2.0490     1.0690 sy         1 7TR       1.171600
     37 OAG          2.0640    -0.8400     1.8970 o          1 7TR      -0.541000
     38 OAH          1.2810    -3.2470     1.4600 o          1 7TR      -0.541000
     39 CBL          3.7240    -2.5670     0.7340 ca         1 7TR      -0.328500
     40 CAQ          3.9670    -3.8060     0.1110 ca         1 7TR       0.029000
     41 CAO          5.2860    -4.1930    -0.1760 ca         1 7TR      -0.201500
     42 CBI          6.3640    -3.3580     0.1560 ca         1 7TR       0.197100
     43 OBD          7.6350    -3.7880    -0.1660 os         1 7TR      -0.334100
     44 CAC          8.8030    -2.9900     0.0960 c3         1 7TR       0.145900
     45 CAP          6.1180    -2.1240     0.7940 ca         1 7TR      -0.201500
     46 CAR          4.8020    -1.7320     1.0870 ca         1 7TR       0.029000
     47 H1          -9.4440     2.4890    -2.0620 hc         1 7TR       0.043033
     48 H2          -8.2580     3.8000    -1.9070 hc         1 7TR       0.043033
     49 H3          -7.7330     2.1910    -2.4480 hc         1 7TR       0.043033
     50 H4          -7.1380     2.6450    -0.0220 h1         1 7TR       0.054700
     51 H5          -8.8430     2.8820     0.3330 h1         1 7TR       0.054700
     52 H6          -9.4280    -0.4390     1.1790 h1         1 7TR       0.054700
     53 H7         -10.0440     1.2090     1.1100 h1         1 7TR       0.054700
     54 H8         -11.5330    -0.3900    -0.1090 hc         1 7TR       0.043033
     55 H9         -10.8830     0.8350    -1.2150 hc         1 7TR       0.043033
     56 H10        -10.1990    -0.8080    -1.2070 hc         1 7TR       0.043033
     57 H11         -4.8590    -0.9190     1.1430 ha         1 7TR       0.127000
     58 H12         -2.6170    -1.9370     0.8710 ha         1 7TR       0.125000
     59 H13         -4.6130     0.7130    -2.8470 ha         1 7TR       0.127000
     60 H14         -2.3650    -0.3080    -3.1310 ha         1 7TR       0.125000
     61 H15         -0.9150    -2.8090    -0.9170 hc         1 7TR       0.062700
     62 H16         -0.6280    -1.8290    -2.3420 hc         1 7TR       0.062700
     63 H17         -0.2810    -0.8870     0.5290 h1         1 7TR       0.090700
     64 H18          0.3760     0.5120    -2.0960 h1         1 7TR       0.055700
     65 H19         -0.8430     0.9560    -0.9470 h1         1 7TR       0.055700
     66 H20          1.4510     2.3440     1.5290 h1         1 7TR       0.056700
     67 H21          0.4880     3.2730     0.3830 h1         1 7TR       0.056700
     68 H22          0.1530     0.5260     3.1390 h4         1 7TR       0.057100
     69 H23         -3.7800     1.5730     2.0810 h5         1 7TR       0.054100
     70 H24         -3.2750     2.5830    -0.3460 h1         1 7TR       0.054700
     71 H25         -2.5860     3.9980     0.5040 h1         1 7TR       0.054700
     72 H26         -1.5990     3.0960    -0.6820 h1         1 7TR       0.054700
     73 H27          2.9210     3.3390    -0.0190 ha         1 7TR       0.118000
     74 H28          5.3310     3.2860    -0.4660 ha         1 7TR       0.123000
     75 H29          4.9970    -0.7710    -1.8720 ha         1 7TR       0.117000
     76 H30          1.8750    -1.0470    -2.4610 h1         1 7TR       0.063700
     77 H31          3.1180    -1.9750    -1.6900 h1         1 7TR       0.063700
     78 H32          3.1400    -4.4590    -0.1640 ha         1 7TR       0.138000
     79 H33          5.4750    -5.1440    -0.6660 ha         1 7TR       0.129000
     80 H34          9.7050    -3.5120    -0.2460 h1         1 7TR       0.047033
     81 H35          8.7460    -2.0290    -0.4330 h1         1 7TR       0.047033
     82 H36          8.9100    -2.7950     1.1710 h1         1 7TR       0.047033
     83 H37          6.9300    -1.4560     1.0660 ha         1 7TR       0.129000
     84 H38          4.6260    -0.7720     1.5700 ha         1 7TR       0.138000
@<TRIPOS>BOND
     1     1     2 1   
     2     1    47 1   
     3     1    48 1   
     4     1    49 1   
     5     2     3 1   
     6     2    50 1   
     7     2    51 1   
     8     3     4 1   
     9     3     6 1   
    10     4     5 1   
    11     4    52 1   
    12     4    53 1   
    13     5    54 1   
    14     5    55 1   
    15     5    56 1   
    16     6     7 2   
    17     6     8 1   
    18     8     9 1   
    19     9    10 ar  
    20     9    12 ar  
    21    10    11 ar  
    22    10    57 1   
    23    11    14 ar  
    24    11    58 1   
    25    12    13 ar  
    26    12    59 1   
    27    13    14 ar  
    28    13    60 1   
    29    14    15 1   
    30    15    16 1   
    31    15    61 1   
    32    15    62 1   
    33    16    17 1   
    34    16    35 1   
    35    16    63 1   
    36    17    18 1   
    37    17    64 1   
    38    17    65 1   
    39    18    19 1   
    40    18    26 1   
    41    19    20 1   
    42    19    66 1   
    43    19    67 1   
    44    20    21 2   
    45    20    24 1   
    46    21    22 1   
    47    21    68 1   
    48    22    23 2   
    49    23    24 1   
    50    23    69 1   
    51    24    25 1   
    52    25    70 1   
    53    25    71 1   
    54    25    72 1   
    55    26    27 ar  
    56    26    33 ar  
    57    27    28 ar  
    58    27    73 1   
    59    28    29 ar  
    60    28    74 1   
    61    29    30 1   
    62    29    32 ar  
    63    30    31 3   
    64    32    33 ar  
    65    32    75 1   
    66    33    34 1   
    67    34    35 1   
    68    34    76 1   
    69    34    77 1   
    70    35    36 1   
    71    36    37 2   
    72    36    38 2   
    73    36    39 1   
    74    39    40 ar  
    75    39    46 ar  
    76    40    41 ar  
    77    40    78 1   
    78    41    42 ar  
    79    41    79 1   
    80    42    43 1   
    81    42    45 ar  
    82    43    44 1   
    83    44    80 1   
    84    44    81 1   
    85    44    82 1   
    86    45    46 ar  
    87    45    83 1   
    88    46    84 1   
@<TRIPOS>SUBSTRUCTURE
     1 7TR         1 TEMP              0 ****  ****    0 ROOT
