@<TRIPOS>MOLECULE
7TU
   76    82     1     0     0
SMALL
abcg2


@<TRIPOS>ATOM
      1 C1         -34.4120     5.1430   -12.5140 c3         1 7TU       0.280100
      2 C10        -34.6870     4.1190   -10.2920 c2         1 7TU       0.597100
      3 C11        -36.2490     7.1540    -8.2210 ca         1 7TU      -0.098500
      4 C12        -32.8230     4.5470    -9.2300 c5         1 7TU       0.148800
      5 C13        -32.7270     5.1880   -10.6490 c5         1 7TU       0.231800
      6 C14        -35.3180     6.4930    -7.4270 ca         1 7TU      -0.114250
      7 C15        -36.6020     9.9300   -10.3420 c5         1 7TU       0.231800
      8 C16        -37.3030     9.2950    -9.0840 c5         1 7TU       0.148800
      9 C17        -34.4440     7.2140    -6.6260 ca         1 7TU      -0.110000
     10 C18        -38.3400     8.5530   -10.8690 c2         1 7TU       0.597100
     11 C19        -34.5110     8.6020    -6.6150 ca         1 7TU      -0.114250
     12 C2         -34.5180     6.5690   -12.9850 ca         1 7TU      -0.110300
     13 C20        -35.4500     9.2580    -7.3980 ca         1 7TU      -0.098500
     14 C21        -36.5780    11.4360   -10.3290 ca         1 7TU      -0.088300
     15 C22        -37.7380    12.1710   -10.5640 ca         1 7TU      -0.094000
     16 C23        -37.7170    13.5570   -10.5090 ca         1 7TU      -0.114500
     17 C24        -36.5360    14.2290   -10.2150 ca         1 7TU      -0.106000
     18 C25        -35.3770    13.5030    -9.9790 ca         1 7TU      -0.114500
     19 C26        -35.4000    12.1160   -10.0410 ca         1 7TU      -0.094000
     20 C27        -32.1960     6.5930   -10.6420 ca         1 7TU      -0.088300
     21 C28        -30.8990     6.8380   -11.0760 ca         1 7TU      -0.094000
     22 C29        -30.3700     8.1230   -11.0470 ca         1 7TU      -0.114500
     23 C3         -35.6470     7.3190   -12.6780 ca         1 7TU      -0.077000
     24 C30        -31.1420     9.1790   -10.5850 ca         1 7TU      -0.106000
     25 C31        -32.4390     8.9390   -10.1450 ca         1 7TU      -0.114500
     26 C32        -32.9620     7.6560   -10.1690 ca         1 7TU      -0.094000
     27 C33        -31.6010     3.7410    -8.8870 ca         1 7TU      -0.074800
     28 C34        -31.4620     2.4300    -9.3340 ca         1 7TU      -0.098500
     29 C35        -30.3090     1.7090    -9.0560 ca         1 7TU      -0.114250
     30 C36        -29.2770     2.2920    -8.3310 ca         1 7TU      -0.110000
     31 C37        -29.4070     3.5990    -7.8830 ca         1 7TU      -0.114250
     32 C38        -30.5640     4.3170    -8.1590 ca         1 7TU      -0.098500
     33 C4         -35.7670     8.6430   -13.0850 ca         1 7TU      -0.110300
     34 C5         -34.7200     9.2250   -13.7930 ca         1 7TU      -0.087500
     35 C6         -33.5880     8.4850   -14.1110 ca         1 7TU      -0.109000
     36 C7         -33.4910     7.1590   -13.7130 ca         1 7TU      -0.087500
     37 C8         -36.3260     8.5420    -8.2130 ca         1 7TU      -0.074800
     38 C9         -37.0230     9.4290   -12.7890 c3         1 7TU       0.280100
     39 N11        -34.0590     3.7730    -9.2390 n2         1 7TU      -0.631900
     40 N14        -37.4200     9.3880   -11.4080 nh         1 7TU      -0.782100
     41 N17        -38.3750     8.4530    -9.5980 n2         1 7TU      -0.631900
     42 N8         -34.1020     5.0460   -11.1040 nh         1 7TU      -0.782100
     43 H1         -35.3610     4.6290   -12.6830 h1         1 7TU       0.051700
     44 H2         -33.6530     4.6110   -13.1000 h1         1 7TU       0.051700
     45 H3         -35.6680     3.7340   -10.5560 h5         1 7TU       0.044800
     46 H5         -36.9240     6.5820    -8.8450 ha         1 7TU       0.116000
     47 H6         -32.9270     5.3480    -8.4870 h1         1 7TU       0.085200
     48 H7         -32.0780     4.5730   -11.2900 h1         1 7TU       0.059700
     49 H8         -35.2680     5.4120    -7.4500 ha         1 7TU       0.115000
     50 H9         -35.5710     9.5650   -10.4300 h1         1 7TU       0.059700
     51 H10        -37.7380    10.0970    -8.4780 h1         1 7TU       0.085200
     52 H11        -33.7160     6.6990    -6.0130 ha         1 7TU       0.112000
     53 H12        -39.0220     8.0270   -11.5300 h5         1 7TU       0.044800
     54 H14        -33.8370     9.1750    -5.9920 ha         1 7TU       0.115000
     55 H15        -35.5040    10.3410    -7.3750 ha         1 7TU       0.116000
     56 H16        -38.6640    11.6600   -10.7970 ha         1 7TU       0.118500
     57 H17        -38.6240    14.1160   -10.6980 ha         1 7TU       0.111750
     58 H18        -36.5200    15.3100   -10.1730 ha         1 7TU       0.111500
     59 H19        -34.4510    14.0160    -9.7530 ha         1 7TU       0.111750
     60 H20        -34.4900    11.5550    -9.8640 ha         1 7TU       0.118500
     61 H21        -30.2950     6.0190   -11.4480 ha         1 7TU       0.118500
     62 H22        -29.3590     8.2980   -11.3920 ha         1 7TU       0.111750
     63 H23        -36.4500     6.8510   -12.1170 ha         1 7TU       0.114000
     64 H24        -30.7380    10.1840   -10.5670 ha         1 7TU       0.111500
     65 H25        -33.0460     9.7560    -9.7780 ha         1 7TU       0.111750
     66 H26        -33.9760     7.4850    -9.8280 ha         1 7TU       0.118500
     67 H27        -32.2610     1.9680    -9.9000 ha         1 7TU       0.116000
     68 H28        -30.2150     0.6890    -9.4060 ha         1 7TU       0.115000
     69 H29        -28.3780     1.7290    -8.1140 ha         1 7TU       0.112000
     70 H30        -28.6100     4.0610    -7.3140 ha         1 7TU       0.115000
     71 H31        -30.6650     5.3340    -7.7980 ha         1 7TU       0.116000
     72 H32        -34.7930    10.2600   -14.1040 ha         1 7TU       0.114000
     73 H33        -32.7810     8.9440   -14.6650 ha         1 7TU       0.116000
     74 H34        -32.6070     6.5840   -13.9610 ha         1 7TU       0.114000
     75 H35        -36.8880    10.4690   -13.0970 h1         1 7TU       0.051700
     76 H36        -37.8540     9.0390   -13.3830 h1         1 7TU       0.051700
@<TRIPOS>BOND
     1     1    12 1   
     2     1    42 1   
     3     1    43 1   
     4     1    44 1   
     5     2    39 2   
     6     2    42 1   
     7     2    45 1   
     8     3     6 ar  
     9     3    37 ar  
    10     3    46 1   
    11     4     5 1   
    12     4    27 1   
    13     4    39 1   
    14     4    47 1   
    15     5    20 1   
    16     5    42 1   
    17     5    48 1   
    18     6     9 ar  
    19     6    49 1   
    20     7     8 1   
    21     7    14 1   
    22     7    40 1   
    23     7    50 1   
    24     8    37 1   
    25     8    41 1   
    26     8    51 1   
    27     9    11 ar  
    28     9    52 1   
    29    10    40 1   
    30    10    41 2   
    31    10    53 1   
    32    11    13 ar  
    33    11    54 1   
    34    12    23 ar  
    35    12    36 ar  
    36    13    37 ar  
    37    13    55 1   
    38    14    15 ar  
    39    14    19 ar  
    40    15    16 ar  
    41    15    56 1   
    42    16    17 ar  
    43    16    57 1   
    44    17    18 ar  
    45    17    58 1   
    46    18    19 ar  
    47    18    59 1   
    48    19    60 1   
    49    20    21 ar  
    50    20    26 ar  
    51    21    22 ar  
    52    21    61 1   
    53    22    24 ar  
    54    22    62 1   
    55    23    33 ar  
    56    23    63 1   
    57    24    25 ar  
    58    24    64 1   
    59    25    26 ar  
    60    25    65 1   
    61    26    66 1   
    62    27    28 ar  
    63    27    32 ar  
    64    28    29 ar  
    65    28    67 1   
    66    29    30 ar  
    67    29    68 1   
    68    30    31 ar  
    69    30    69 1   
    70    31    32 ar  
    71    31    70 1   
    72    32    71 1   
    73    33    34 ar  
    74    33    38 1   
    75    34    35 ar  
    76    34    72 1   
    77    35    36 ar  
    78    35    73 1   
    79    36    74 1   
    80    38    40 1   
    81    38    75 1   
    82    38    76 1   
@<TRIPOS>SUBSTRUCTURE
     1 7TU         1 TEMP              0 ****  ****    0 ROOT
