@<TRIPOS>MOLECULE
7TU
   76    82     1     0     0
SMALL
No Charge or Current Charge


@<TRIPOS>ATOM
      1 C1         -34.6200     4.9910   -12.5420 c3         1 7TU       0.280100
      2 C10        -34.7340     3.8150   -10.3470 c2         1 7TU       0.597100
      3 C11        -36.2860     7.2670    -8.1740 ca         1 7TU      -0.098500
      4 C12        -32.8970     4.4040    -9.2700 c5         1 7TU       0.148800
      5 C13        -32.7930     4.9750   -10.7240 c5         1 7TU       0.231800
      6 C14        -35.3150     6.6690    -7.3520 ca         1 7TU      -0.114250
      7 C15        -36.6130     9.9440   -10.4170 c5         1 7TU       0.231800
      8 C16        -37.4090     9.3630    -9.1880 c5         1 7TU       0.148800
      9 C17        -34.4070     7.4670    -6.6390 ca         1 7TU      -0.110000
     10 C18        -38.3840     8.6000   -11.0370 c2         1 7TU       0.597100
     11 C19        -34.4790     8.8650    -6.7420 ca         1 7TU      -0.114250
     12 C2         -34.6120     6.4500   -12.9820 ca         1 7TU      -0.110300
     13 C20        -35.4540     9.4630    -7.5580 ca         1 7TU      -0.098500
     14 C21        -36.5530    11.4700   -10.2820 ca         1 7TU      -0.088300
     15 C22        -37.7280    12.2530   -10.2520 ca         1 7TU      -0.094000
     16 C23        -37.6560    13.6510   -10.1320 ca         1 7TU      -0.114500
     17 C24        -36.4060    14.2860   -10.0470 ca         1 7TU      -0.106000
     18 C25        -35.2300    13.5200   -10.0880 ca         1 7TU      -0.114500
     19 C26        -35.3040    12.1210   -10.2080 ca         1 7TU      -0.094000
     20 C27        -32.2940     6.4180   -10.6010 ca         1 7TU      -0.088300
     21 C28        -30.9550     6.7220   -10.9240 ca         1 7TU      -0.094000
     22 C29        -30.4690     8.0350   -10.8000 ca         1 7TU      -0.114500
     23 C3         -35.7510     7.2520   -12.7730 ca         1 7TU      -0.077000
     24 C30        -31.3160     9.0590   -10.3440 ca         1 7TU      -0.106000
     25 C31        -32.6500     8.7660   -10.0190 ca         1 7TU      -0.114500
     26 C32        -33.1360     7.4560   -10.1520 ca         1 7TU      -0.094000
     27 C33        -31.5540     3.7320    -8.9710 ca         1 7TU      -0.074800
     28 C34        -31.2200     2.4770    -9.5230 ca         1 7TU      -0.098500
     29 C35        -29.9750     1.8840    -9.2500 ca         1 7TU      -0.114250
     30 C36        -29.0500     2.5400    -8.4220 ca         1 7TU      -0.110000
     31 C37        -29.3710     3.7900    -7.8690 ca         1 7TU      -0.114250
     32 C38        -30.6170     4.3820    -8.1430 ca         1 7TU      -0.098500
     33 C4         -35.7540     8.6110   -13.1480 ca         1 7TU      -0.110300
     34 C5         -34.5980     9.1640   -13.7360 ca         1 7TU      -0.087500
     35 C6         -33.4620     8.3660   -13.9520 ca         1 7TU      -0.109000
     36 C7         -33.4690     7.0120   -13.5810 ca         1 7TU      -0.087500
     37 C8         -36.3670     8.6740    -8.2920 ca         1 7TU      -0.074800
     38 C9         -36.9870     9.4840   -12.9150 c3         1 7TU       0.280100
     39 N11        -34.0800     3.4890    -9.2890 n2         1 7TU      -0.631900
     40 N14        -37.4640     9.4940   -11.5240 nh         1 7TU      -0.782100
     41 N17        -38.4610     8.4630    -9.7630 n2         1 7TU      -0.631900
     42 N8         -34.1920     4.7940   -11.1470 nh         1 7TU      -0.782100
     43 H1         -35.6440     4.6120   -12.6650 h1         1 7TU       0.051700
     44 H2         -33.9840     4.3980   -13.2130 h1         1 7TU       0.051700
     45 H3         -35.6710     3.3550   -10.6750 h5         1 7TU       0.044800
     46 H5         -36.9690     6.6250    -8.7240 ha         1 7TU       0.116000
     47 H6         -33.0860     5.2060    -8.5430 h1         1 7TU       0.085200
     48 H7         -32.1230     4.3670   -11.3490 h1         1 7TU       0.059700
     49 H8         -35.2640     5.5860    -7.2740 ha         1 7TU       0.115000
     50 H9         -35.6090     9.5020   -10.4930 h1         1 7TU       0.059700
     51 H10        -37.9010    10.1620    -8.6160 h1         1 7TU       0.085200
     52 H11        -33.6520     7.0040    -6.0080 ha         1 7TU       0.112000
     53 H12        -39.0030     8.0700   -11.7660 h5         1 7TU       0.044800
     54 H14        -33.7780     9.4870    -6.1890 ha         1 7TU       0.115000
     55 H15        -35.4990    10.5480    -7.6250 ha         1 7TU       0.116000
     56 H16        -38.7020    11.7740   -10.3260 ha         1 7TU       0.118500
     57 H17        -38.5680    14.2420   -10.1070 ha         1 7TU       0.111750
     58 H18        -36.3490    15.3680    -9.9540 ha         1 7TU       0.111500
     59 H19        -34.2610    14.0090   -10.0290 ha         1 7TU       0.111750
     60 H20        -34.3850    11.5430   -10.2460 ha         1 7TU       0.118500
     61 H21        -30.2870     5.9360   -11.2680 ha         1 7TU       0.118500
     62 H22        -29.4350     8.2580   -11.0510 ha         1 7TU       0.111750
     63 H23        -36.6320     6.8160   -12.3090 ha         1 7TU       0.114000
     64 H24        -30.9400    10.0740   -10.2430 ha         1 7TU       0.111500
     65 H25        -33.3060     9.5520    -9.6590 ha         1 7TU       0.111750
     66 H26        -34.1730     7.2440    -9.9100 ha         1 7TU       0.118500
     67 H27        -31.9260     1.9600   -10.1690 ha         1 7TU       0.116000
     68 H28        -29.7280     0.9160    -9.6810 ha         1 7TU       0.115000
     69 H29        -28.0860     2.0820    -8.2100 ha         1 7TU       0.112000
     70 H30        -28.6560     4.3020    -7.2290 ha         1 7TU       0.115000
     71 H31        -30.8520     5.3540    -7.7130 ha         1 7TU       0.116000
     72 H32        -34.5780    10.2120   -14.0250 ha         1 7TU       0.114000
     73 H33        -32.5720     8.8000   -14.4040 ha         1 7TU       0.116000
     74 H34        -32.5810     6.4050   -13.7420 ha         1 7TU       0.114000
     75 H35        -36.7380    10.5140   -13.2020 h1         1 7TU       0.051700
     76 H36        -37.7930     9.1590   -13.5870 h1         1 7TU       0.051700
@<TRIPOS>BOND
     1     1    12 1   
     2     1    42 1   
     3     1    43 1   
     4     1    44 1   
     5     2    39 2   
     6     2    42 1   
     7     2    45 1   
     8     3     6 ar  
     9     3    37 ar  
    10     3    46 1   
    11     4     5 1   
    12     4    27 1   
    13     4    39 1   
    14     4    47 1   
    15     5    20 1   
    16     5    42 1   
    17     5    48 1   
    18     6     9 ar  
    19     6    49 1   
    20     7     8 1   
    21     7    14 1   
    22     7    40 1   
    23     7    50 1   
    24     8    37 1   
    25     8    41 1   
    26     8    51 1   
    27     9    11 ar  
    28     9    52 1   
    29    10    40 1   
    30    10    41 2   
    31    10    53 1   
    32    11    13 ar  
    33    11    54 1   
    34    12    23 ar  
    35    12    36 ar  
    36    13    37 ar  
    37    13    55 1   
    38    14    15 ar  
    39    14    19 ar  
    40    15    16 ar  
    41    15    56 1   
    42    16    17 ar  
    43    16    57 1   
    44    17    18 ar  
    45    17    58 1   
    46    18    19 ar  
    47    18    59 1   
    48    19    60 1   
    49    20    21 ar  
    50    20    26 ar  
    51    21    22 ar  
    52    21    61 1   
    53    22    24 ar  
    54    22    62 1   
    55    23    33 ar  
    56    23    63 1   
    57    24    25 ar  
    58    24    64 1   
    59    25    26 ar  
    60    25    65 1   
    61    26    66 1   
    62    27    28 ar  
    63    27    32 ar  
    64    28    29 ar  
    65    28    67 1   
    66    29    30 ar  
    67    29    68 1   
    68    30    31 ar  
    69    30    69 1   
    70    31    32 ar  
    71    31    70 1   
    72    32    71 1   
    73    33    34 ar  
    74    33    38 1   
    75    34    35 ar  
    76    34    72 1   
    77    35    36 ar  
    78    35    73 1   
    79    36    74 1   
    80    38    40 1   
    81    38    75 1   
    82    38    76 1   
@<TRIPOS>SUBSTRUCTURE
     1 7TU         1 TEMP              0 ****  ****    0 ROOT
