@<TRIPOS>MOLECULE
7TV
   67    70     1     0     0
SMALL
bcc


@<TRIPOS>ATOM
      1 C4           3.9920     2.0810     1.5220 ca         1 7TV      -0.090000
      2 C5           2.7880     1.5270     1.1100 ca         1 7TV      -0.153300
      3 C6           2.7370     0.7740    -0.1960 c3         1 7TV       0.169300
      4 C7          -0.6840     1.3770     2.2190 c3         1 7TV       0.132400
      5 C8          -1.8730     0.9930     1.3630 c3         1 7TV      -0.086400
      6 C10         -4.4150     0.9110     1.2800 c3         1 7TV      -0.053400
      7 C13          1.7220     2.6590    -1.4420 c5         1 7TV       0.115700
      8 C15          0.9390    -1.0600    -1.4330 ca         1 7TV      -0.121600
      9 C17          1.5680    -1.7830    -2.4450 ca         1 7TV      -0.100500
     10 C20          0.5030    -3.1300    -0.2740 ca         1 7TV      -0.112500
     11 C21          1.2630    -5.3040    -1.2170 cc         1 7TV       0.305200
     12 C22          1.8330    -6.2230    -2.0470 cd         1 7TV      -0.263300
     13 C24          0.9570    -7.2570    -0.2900 cc         1 7TV       0.232600
     14 C26          0.4130     4.6380    -1.8610 c5         1 7TV      -0.077900
     15 C28          1.7800     2.9850    -2.9590 c5         1 7TV      -0.085400
     16 N            1.7090     1.2360    -1.1110 n          1 7TV      -0.455800
     17 C            1.6680     1.6570     1.9470 ca         1 7TV       0.178100
     18 O            0.5150     1.1220     1.5030 os         1 7TV      -0.324900
     19 C1           1.7880     2.3190     3.1670 ca         1 7TV      -0.222000
     20 O1          -6.9320     0.4430     0.1200 o          1 7TV      -0.846300
     21 C2           3.0090     2.8580     3.5550 ca         1 7TV      -0.085000
     22 O2          -8.0640     1.0140     1.9500 o          1 7TV      -0.846300
     23 C3           4.1190     2.7460     2.7360 ca         1 7TV      -0.179000
     24 O3          -0.1530     0.8170    -2.3230 o          1 7TV      -0.581100
     25 O4           0.7300    -5.9370    -0.1490 os         1 7TV      -0.320800
     26 C9          -3.1780     1.1730     2.1300 c3         1 7TV      -0.078400
     27 C11         -5.7010     1.0540     2.0770 c3         1 7TV      -0.205400
     28 C12         -7.0110     0.8180     1.3060 c          1 7TV       0.927600
     29 C14          0.7740     0.4220    -1.6280 c          1 7TV       0.686700
     30 C16          0.4050    -1.7500    -0.3520 ca         1 7TV      -0.100500
     31 C18          1.6720    -3.1590    -2.3690 ca         1 7TV      -0.112500
     32 C19          1.1410    -3.8580    -1.2810 ca         1 7TV      -0.120500
     33 C23          1.6310    -7.4950    -1.4400 cd         1 7TV      -0.274300
     34 C25          0.5540     3.4850    -0.8730 c5         1 7TV      -0.085400
     35 C27          0.6360     3.9690    -3.2160 c5         1 7TV      -0.077900
     36 H3           4.8540     1.9900     0.8720 ha         1 7TV       0.124000
     37 H4           3.7150     0.8600    -0.6790 h1         1 7TV       0.051700
     38 H5           2.5890    -0.2870     0.0000 h1         1 7TV       0.051700
     39 H6          -0.7550     2.4400     2.4740 h1         1 7TV       0.032200
     40 H7          -0.6870     0.8110     3.1590 h1         1 7TV       0.032200
     41 H8          -1.8810     1.6120     0.4610 hc         1 7TV       0.055700
     42 H9          -1.7880    -0.0460     1.0330 hc         1 7TV       0.055700
     43 H13         -4.4230     1.6040     0.4330 hc         1 7TV       0.043700
     44 H12         -4.3560    -0.0920     0.8500 hc         1 7TV       0.043700
     45 H16          2.6400     3.0390    -0.9910 h1         1 7TV       0.043700
     46 H18          1.9900    -1.2680    -3.2990 ha         1 7TV       0.145500
     47 H20          0.0800    -3.6320     0.5850 ha         1 7TV       0.138000
     48 H21          2.3370    -6.0240    -2.9790 ha         1 7TV       0.156000
     49 H23          0.5860    -7.8990     0.4930 h4         1 7TV       0.051100
     50 H26         -0.5490     5.1470    -1.7860 hc         1 7TV       0.043950
     51 H27          1.1910     5.3880    -1.6810 hc         1 7TV       0.043950
     52 H31          2.7410     3.4520    -3.1820 hc         1 7TV       0.050700
     53 H30          1.7170     2.0970    -3.5860 hc         1 7TV       0.050700
     54 H            0.9420     2.4170     3.8330 ha         1 7TV       0.141000
     55 H1           3.0800     3.3690     4.5070 ha         1 7TV       0.126000
     56 H2           5.0700     3.1690     3.0310 ha         1 7TV       0.128000
     57 H11         -3.1810     0.5020     2.9960 hc         1 7TV       0.024200
     58 H10         -3.2250     2.1900     2.5360 hc         1 7TV       0.024200
     59 H14         -5.6830     0.3580     2.9250 hc         1 7TV       0.013700
     60 H15         -5.7440     2.0500     2.5340 hc         1 7TV       0.013700
     61 H17         -0.0740    -1.2130     0.4540 ha         1 7TV       0.145500
     62 H19          2.1690    -3.6920    -3.1680 ha         1 7TV       0.138000
     63 H22          1.9450    -8.4560    -1.8120 ha         1 7TV       0.155000
     64 H24         -0.3620     2.8940    -0.8570 hc         1 7TV       0.050700
     65 H25          0.7520     3.8170     0.1460 hc         1 7TV       0.050700
     66 H28         -0.2650     3.4280    -3.5090 hc         1 7TV       0.043950
     67 H29          0.8610     4.6820    -4.0110 hc         1 7TV       0.043950
@<TRIPOS>BOND
     1     1     2 ar  
     2     1    23 ar  
     3     1    36 1   
     4     2     3 1   
     5     2    17 ar  
     6     3    16 1   
     7     3    37 1   
     8     3    38 1   
     9     4     5 1   
    10     4    18 1   
    11     4    39 1   
    12     4    40 1   
    13     5    26 1   
    14     5    41 1   
    15     5    42 1   
    16     6    26 1   
    17     6    27 1   
    18     6    43 1   
    19     6    44 1   
    20     7    15 1   
    21     7    16 1   
    22     7    34 1   
    23     7    45 1   
    24     8     9 ar  
    25     8    29 1   
    26     8    30 ar  
    27     9    31 ar  
    28     9    46 1   
    29    10    30 ar  
    30    10    32 ar  
    31    10    47 1   
    32    11    12 2   
    33    11    25 1   
    34    11    32 1   
    35    12    33 1   
    36    12    48 1   
    37    13    25 1   
    38    13    33 2   
    39    13    49 1   
    40    14    34 1   
    41    14    35 1   
    42    14    50 1   
    43    14    51 1   
    44    15    35 1   
    45    15    52 1   
    46    15    53 1   
    47    16    29 1   
    48    17    18 1   
    49    17    19 ar  
    50    19    21 ar  
    51    19    54 1   
    52    20    28 1   
    53    21    23 ar  
    54    21    55 1   
    55    22    28 1   
    56    23    56 1   
    57    24    29 2   
    58    26    57 1   
    59    26    58 1   
    60    27    28 1   
    61    27    59 1   
    62    27    60 1   
    63    30    61 1   
    64    31    32 ar  
    65    31    62 1   
    66    33    63 1   
    67    34    64 1   
    68    34    65 1   
    69    35    66 1   
    70    35    67 1   
@<TRIPOS>SUBSTRUCTURE
     1 7TV         1 TEMP              0 ****  ****    0 ROOT
