@<TRIPOS>MOLECULE
7TV
   67    70     1     0     0
SMALL
No Charge or Current Charge


@<TRIPOS>ATOM
      1 C4           3.6990     2.9490     1.4160 ca         1 7TV      -0.072000
      2 C5           2.5960     2.1070     1.1700 ca         1 7TV      -0.153300
      3 C6           2.6410     1.1380    -0.0090 c3         1 7TV       0.169300
      4 C7          -0.7770     1.3020     2.5800 c3         1 7TV       0.155600
      5 C8          -1.7090     0.2140     2.0150 c3         1 7TV      -0.086400
      6 C10         -3.9430    -1.0450     2.2600 c3         1 7TV      -0.053400
      7 C13          2.0380     3.1230    -1.5580 c5         1 7TV       0.115700
      8 C15          1.3620    -0.6510    -2.0470 ca         1 7TV      -0.121600
      9 C17          1.7680    -1.7900    -2.7720 ca         1 7TV      -0.082500
     10 C20         -0.2680    -2.0400    -0.8630 ca         1 7TV      -0.094500
     11 C21         -0.4740    -4.4840    -1.2940 cc         1 7TV       0.195500
     12 C22         -0.1410    -5.6860    -1.8580 cd         1 7TV      -0.180000
     13 C24         -1.8300    -5.9720    -0.4070 cc         1 7TV       0.122900
     14 C26          1.4670     4.8240    -3.1130 c5         1 7TV      -0.077900
     15 C28          3.3710     3.5730    -2.2400 c5         1 7TV      -0.085400
     16 N            2.0590     1.6440    -1.2830 n          1 7TV      -0.388800
     17 C            1.4640     2.1760     2.0120 ca         1 7TV       0.178100
     18 O            0.4000     1.3330     1.7570 os         1 7TV      -0.348100
     19 C1           1.4470     3.0920     3.0880 ca         1 7TV      -0.204000
     20 O1          -5.9600    -3.4640     2.8290 o          1 7TV      -0.741000
     21 C2           2.5510     3.9300     3.3220 ca         1 7TV      -0.067000
     22 O2          -6.9180    -1.9990     1.5750 o          1 7TV      -0.741000
     23 C3           3.6750     3.8560     2.4860 ca         1 7TV      -0.161000
     24 O3           2.3460     0.9620    -3.4840 o          1 7TV      -0.581100
     25 O4          -1.5070    -4.6320    -0.3980 os         1 7TV      -0.232000
     26 C9          -3.0120     0.0510     2.8270 c3         1 7TV      -0.078400
     27 C11         -5.2510    -1.2100     3.0710 c3         1 7TV      -0.205400
     28 C12         -6.1270    -2.3140     2.4500 c          1 7TV       0.717000
     29 C14          1.9830     0.6990    -2.3440 c          1 7TV       0.619700
     30 C16          0.3210    -0.7880    -1.1050 ca         1 7TV      -0.082500
     31 C18          1.1800    -3.0440    -2.5290 ca         1 7TV      -0.094500
     32 C19          0.1570    -3.1860    -1.5660 ca         1 7TV      -0.120500
     33 C23         -1.0140    -6.6360    -1.2860 cd         1 7TV      -0.191000
     34 C25          0.8810     3.5170    -2.5260 c5         1 7TV      -0.085400
     35 C27          2.8910     4.3450    -3.5090 c5         1 7TV      -0.077900
     36 H3           4.5750     2.9030     0.7720 ha         1 7TV       0.106000
     37 H4           3.6900     0.8810    -0.2050 h1         1 7TV       0.051700
     38 H5           2.1560     0.2050     0.2950 h1         1 7TV       0.051700
     39 H6          -1.2890     2.2730     2.5640 h1         1 7TV       0.032200
     40 H7          -0.5160     1.0560     3.6180 h1         1 7TV       0.032200
     41 H8          -1.9610     0.4640     0.9770 hc         1 7TV       0.055700
     42 H9          -1.1710    -0.7410     2.0000 hc         1 7TV       0.055700
     43 H13         -4.1920    -0.8030     1.2190 hc         1 7TV       0.043700
     44 H12         -3.4050    -2.0020     2.2440 hc         1 7TV       0.043700
     45 H16          1.9040     3.6940    -0.6300 h1         1 7TV       0.043700
     46 H18          2.5510    -1.7060    -3.5230 ha         1 7TV       0.127500
     47 H20         -1.0670    -2.1130    -0.1290 ha         1 7TV       0.120000
     48 H21          0.6340    -5.8780    -2.5920 ha         1 7TV       0.138000
     49 H23         -2.6310    -6.3060     0.2380 h4         1 7TV       0.051100
     50 H26          0.8950     5.1900    -3.9730 hc         1 7TV       0.043950
     51 H27          1.4990     5.6300    -2.3690 hc         1 7TV       0.043950
     52 H31          3.9340     4.2310    -1.5690 hc         1 7TV       0.050700
     53 H30          4.0410     2.7450    -2.4970 hc         1 7TV       0.050700
     54 H            0.5910     3.1690     3.7510 ha         1 7TV       0.123000
     55 H1           2.5340     4.6340     4.1510 ha         1 7TV       0.108000
     56 H2           4.5290     4.5050     2.6680 ha         1 7TV       0.110000
     57 H11         -2.7590    -0.1930     3.8660 hc         1 7TV       0.024200
     58 H10         -3.5480     1.0080     2.8420 hc         1 7TV       0.024200
     59 H14         -4.9420    -1.4900     4.0860 hc         1 7TV       0.013700
     60 H15         -5.7610    -0.2400     3.0180 hc         1 7TV       0.013700
     61 H17         -0.0470     0.0820    -0.5670 ha         1 7TV       0.127500
     62 H19          1.5280    -3.8990    -3.1020 ha         1 7TV       0.120000
     63 H22         -1.0410    -7.7010    -1.4970 ha         1 7TV       0.137000
     64 H24          0.6750     2.7940    -3.3210 hc         1 7TV       0.050700
     65 H25         -0.0620     3.6820    -1.9930 hc         1 7TV       0.050700
     66 H28          2.8540     3.6840    -4.3830 hc         1 7TV       0.043950
     67 H29          3.5560     5.1780    -3.7640 hc         1 7TV       0.043950
@<TRIPOS>BOND
     1     1     2 ar  
     2     1    23 ar  
     3     1    36 1   
     4     2     3 1   
     5     2    17 ar  
     6     3    16 1   
     7     3    37 1   
     8     3    38 1   
     9     4     5 1   
    10     4    18 1   
    11     4    39 1   
    12     4    40 1   
    13     5    26 1   
    14     5    41 1   
    15     5    42 1   
    16     6    26 1   
    17     6    27 1   
    18     6    43 1   
    19     6    44 1   
    20     7    15 1   
    21     7    16 1   
    22     7    34 1   
    23     7    45 1   
    24     8     9 ar  
    25     8    29 1   
    26     8    30 ar  
    27     9    31 ar  
    28     9    46 1   
    29    10    30 ar  
    30    10    32 ar  
    31    10    47 1   
    32    11    12 2   
    33    11    25 1   
    34    11    32 1   
    35    12    33 1   
    36    12    48 1   
    37    13    25 1   
    38    13    33 2   
    39    13    49 1   
    40    14    34 1   
    41    14    35 1   
    42    14    50 1   
    43    14    51 1   
    44    15    35 1   
    45    15    52 1   
    46    15    53 1   
    47    16    29 1   
    48    17    18 1   
    49    17    19 ar  
    50    19    21 ar  
    51    19    54 1   
    52    20    28 1   
    53    21    23 ar  
    54    21    55 1   
    55    22    28 1   
    56    23    56 1   
    57    24    29 2   
    58    26    57 1   
    59    26    58 1   
    60    27    28 1   
    61    27    59 1   
    62    27    60 1   
    63    30    61 1   
    64    31    32 ar  
    65    31    62 1   
    66    33    63 1   
    67    34    64 1   
    68    34    65 1   
    69    35    66 1   
    70    35    67 1   
@<TRIPOS>SUBSTRUCTURE
     1 7TV         1 TEMP              0 ****  ****    0 ROOT
