@<TRIPOS>MOLECULE
7TW
   38    40     1     0     0
SMALL
No Charge or Current Charge


@<TRIPOS>ATOM
      1 C13        -18.8170     3.7920    20.3030 cc         1 7TW      -0.124400
      2 C17        -18.7800     2.4430    20.7940 ca         1 7TW      -0.095800
      3 C20        -18.6870     0.0860    22.2700 ca         1 7TW      -0.095000
      4 C21        -18.6770     1.3310    22.9350 ca         1 7TW      -0.138000
      5 C04        -21.0870     4.0450    14.5410 ca         1 7TW      -0.258600
      6 C05        -22.1720     3.8240    13.6610 ca         1 7TW       0.030000
      7 C06        -23.4950     3.7210    14.1450 ca         1 7TW      -0.303200
      8 C07        -23.7350     3.8480    15.5270 ca         1 7TW       0.005000
      9 C08        -22.6630     4.0680    16.4020 ca         1 7TW      -0.275000
     10 C09        -21.3470     4.1600    15.9240 ca         1 7TW       0.419000
     11 C11        -20.2770     3.9420    18.2300 c3         1 7TW       0.235800
     12 C12        -18.8990     4.2260    18.8630 c3         1 7TW      -0.021200
     13 C14        -18.7770     4.6080    21.4300 cd         1 7TW      -0.164100
     14 C16        -18.7250     2.4960    22.1580 ca         1 7TW      -0.049200
     15 C18        -18.7870     1.2230    20.1000 ca         1 7TW      -0.050000
     16 C19        -18.7410     0.0330    20.8570 ca         1 7TW      -0.149000
     17 N10        -20.3140     4.3750    16.8260 nu         1 7TW      -0.969200
     18 N15        -18.7200     3.8070    22.5970 na         1 7TW      -0.230700
     19 O01        -19.5900     4.4120    12.7720 o          1 7TW      -0.712500
     20 O03        -18.7260     4.0130    14.6940 o          1 7TW      -0.712500
     21 O23        -25.7740     3.4060    13.6660 o          1 7TW      -0.455000
     22 O24        -24.3750     3.3760    11.9940 o          1 7TW      -0.455000
     23 H1         -18.6500    -0.8360    22.8460 ha         1 7TW       0.102000
     24 H2         -18.6330     1.3820    24.0210 ha         1 7TW       0.105000
     25 H3         -21.9810     3.7290    12.5920 ha         1 7TW       0.162000
     26 H4         -24.7430     3.7800    15.9320 ha         1 7TW       0.118000
     27 H5         -22.8710     4.1690    17.4620 ha         1 7TW       0.101000
     28 H6         -21.0480     4.4690    18.8090 h1         1 7TW       0.031200
     29 H7         -20.4870     2.8660    18.2900 h1         1 7TW       0.031200
     30 H8         -18.1230     3.7110    18.2840 hc         1 7TW       0.059700
     31 H9         -18.6870     5.2990    18.7890 hc         1 7TW       0.059700
     32 H10        -18.7900     5.6940    21.4850 h4         1 7TW       0.212000
     33 H11        -18.8250     1.1920    19.0140 ha         1 7TW       0.125000
     34 H12        -18.7460    -0.9300    20.3510 ha         1 7TW       0.108000
     35 H13        -19.4130     4.3310    16.3250 hn         1 7TW       0.568000
     36 H14        -18.6840     4.1280    23.5600 hn         1 7TW       0.343000
     37 C02        -19.6960     4.1660    13.9640 c          1 7TW       0.729600
     38 N22        -24.6300     3.4850    13.2000 no         1 7TW       0.713200
@<TRIPOS>BOND
     1     1     2 1   
     2     1    12 1   
     3     1    13 2   
     4     2    14 ar  
     5     2    15 ar  
     6     3     4 ar  
     7     3    16 ar  
     8     3    23 1   
     9     4    14 ar  
    10     4    24 1   
    11     5     6 ar  
    12     5    10 ar  
    13     5    37 1   
    14     6     7 ar  
    15     6    25 1   
    16     7     8 ar  
    17     7    38 1   
    18     8     9 ar  
    19     8    26 1   
    20     9    10 ar  
    21     9    27 1   
    22    10    17 1   
    23    11    12 1   
    24    11    17 1   
    25    11    28 1   
    26    11    29 1   
    27    12    30 1   
    28    12    31 1   
    29    13    18 1   
    30    13    32 1   
    31    14    18 1   
    32    15    16 ar  
    33    15    33 1   
    34    16    34 1   
    35    17    35 1   
    36    18    36 1   
    37    19    37 1   
    38    20    37 1   
    39    21    38 1   
    40    22    38 1   
@<TRIPOS>SUBSTRUCTURE
     1 7TW         1 TEMP              0 ****  ****    0 ROOT
