@<TRIPOS>MOLECULE
7TW
   38    40     1     0     0
SMALL
abcg2


@<TRIPOS>ATOM
      1 C13        -18.7790     3.6980    20.1870 cc         1 7TW      -0.124400
      2 C17        -18.8200     2.3830    20.7550 ca         1 7TW      -0.095800
      3 C20        -18.8550     0.1820    22.4590 ca         1 7TW      -0.095000
      4 C21        -18.8040     1.4420    23.0240 ca         1 7TW      -0.138000
      5 C04        -21.1050     4.2390    14.5070 ca         1 7TW      -0.258600
      6 C05        -22.2120     4.0910    13.7010 ca         1 7TW       0.030000
      7 C06        -23.4540     3.7260    14.2180 ca         1 7TW      -0.303200
      8 C07        -23.6000     3.5050    15.5890 ca         1 7TW       0.005000
      9 C08        -22.5170     3.6450    16.4160 ca         1 7TW      -0.275000
     10 C09        -21.2420     4.0080    15.9120 ca         1 7TW       0.419000
     11 C11        -20.2130     3.8730    18.1450 c3         1 7TW       0.235800
     12 C12        -18.8160     4.0430    18.7350 c3         1 7TW      -0.021200
     13 C14        -18.7270     4.5640    21.2420 cd         1 7TW      -0.164100
     14 C16        -18.7870     2.5350    22.1600 ca         1 7TW      -0.049200
     15 C18        -18.8710     1.0940    20.2110 ca         1 7TW      -0.050000
     16 C19        -18.8870     0.0080    21.0640 ca         1 7TW      -0.149000
     17 N10        -20.1920     4.1300    16.7270 nu         1 7TW      -0.969200
     18 N15        -18.7320     3.8720    22.4220 na         1 7TW      -0.230700
     19 O01        -19.7890     4.8040    12.6280 o          1 7TW      -0.712500
     20 O03        -18.7900     4.7630    14.6140 o          1 7TW      -0.712500
     21 O23        -25.6460     3.2530    13.8280 o          1 7TW      -0.455000
     22 O24        -24.4230     3.7750    12.1580 o          1 7TW      -0.455000
     23 H1         -18.8700    -0.6880    23.1020 ha         1 7TW       0.102000
     24 H2         -18.7770     1.5730    24.0990 ha         1 7TW       0.105000
     25 H3         -22.0900     4.2640    12.6420 ha         1 7TW       0.162000
     26 H4         -24.5550     3.2250    16.0100 ha         1 7TW       0.118000
     27 H5         -22.6510     3.4740    17.4760 ha         1 7TW       0.101000
     28 H6         -20.9020     4.5560    18.6550 h1         1 7TW       0.031200
     29 H7         -20.5750     2.8580    18.3440 h1         1 7TW       0.031200
     30 H8         -18.1170     3.4060    18.1830 hc         1 7TW       0.059700
     31 H9         -18.4850     5.0730    18.5870 hc         1 7TW       0.059700
     32 H10        -18.6830     5.6420    21.2380 h4         1 7TW       0.212000
     33 H11        -18.8960     0.9500    19.1380 ha         1 7TW       0.125000
     34 H12        -18.9260    -0.9950    20.6570 ha         1 7TW       0.108000
     35 H13        -19.3320     4.3950    16.2380 hn         1 7TW       0.568000
     36 H14        -18.6930     4.2890    23.3370 hn         1 7TW       0.343000
     37 C02        -19.7850     4.6360    13.8570 c          1 7TW       0.729600
     38 N22        -24.5750     3.5760    13.3490 no         1 7TW       0.713200
@<TRIPOS>BOND
     1     1     2 1   
     2     1    12 1   
     3     1    13 2   
     4     2    14 ar  
     5     2    15 ar  
     6     3     4 ar  
     7     3    16 ar  
     8     3    23 1   
     9     4    14 ar  
    10     4    24 1   
    11     5     6 ar  
    12     5    10 ar  
    13     5    37 1   
    14     6     7 ar  
    15     6    25 1   
    16     7     8 ar  
    17     7    38 1   
    18     8     9 ar  
    19     8    26 1   
    20     9    10 ar  
    21     9    27 1   
    22    10    17 1   
    23    11    12 1   
    24    11    17 1   
    25    11    28 1   
    26    11    29 1   
    27    12    30 1   
    28    12    31 1   
    29    13    18 1   
    30    13    32 1   
    31    14    18 1   
    32    15    16 ar  
    33    15    33 1   
    34    16    34 1   
    35    17    35 1   
    36    18    36 1   
    37    19    37 1   
    38    20    37 1   
    39    21    38 1   
    40    22    38 1   
@<TRIPOS>SUBSTRUCTURE
     1 7TW         1 TEMP              0 ****  ****    0 ROOT
