@<TRIPOS>MOLECULE
7TX
   62    65     1     0     0
SMALL
abcg2


@<TRIPOS>ATOM
      1 OAE          0.0980    -1.0190    -1.4510 o          1 7TX      -0.560000
      2 CBA          1.1260    -1.5300    -1.0570 c          1 7TX       0.625000
      3 NAU          1.1130    -2.7790    -0.4830 ns         1 7TX      -0.465500
      4 CAZ          2.1760    -3.4870     0.0130 c          1 7TX       0.597600
      5 OAD          2.0250    -4.5890     0.5010 o          1 7TX      -0.524000
      6 CBB          3.4560    -2.7930    -0.1040 ca         1 7TX      -0.219600
      7 CAK          4.6110    -3.4170     0.3660 ca         1 7TX      -0.014000
      8 CAG          5.8350    -2.7920     0.2780 ca         1 7TX      -0.153000
      9 CAH          5.8970    -1.5220    -0.2870 ca         1 7TX      -0.045000
     10 CAL          4.7630    -0.8860    -0.7570 ca         1 7TX      -0.178000
     11 CBC          3.5150    -1.5150    -0.6780 ca         1 7TX       0.130600
     12 NBG          2.3500    -0.9190    -1.1520 n          1 7TX      -0.304000
     13 CAR          2.3390     0.4270    -1.7300 c3         1 7TX       0.159300
     14 CAW          1.9060     1.4710    -0.7340 ca         1 7TX      -0.148300
     15 CAM          0.6230     1.9970    -0.8000 ca         1 7TX      -0.029000
     16 CAI          2.7540     1.9130     0.2780 ca         1 7TX      -0.051000
     17 CAJ          2.3290     2.8540     1.2020 ca         1 7TX      -0.170000
     18 CAX          1.0470     3.3580     1.1030 ca         1 7TX       0.233000
     19 FAF          0.6390     4.2470     2.0150 f          1 7TX      -0.156000
     20 CAY          0.1690     2.9450     0.1130 ca         1 7TX      -0.197600
     21 CAV         -1.2150     3.5060     0.0060 c          1 7TX       0.618700
     22 OAC         -1.4410     4.7040     0.0970 o          1 7TX      -0.591100
     23 NAT         -2.1550     2.5800    -0.2270 ns         1 7TX      -0.490900
     24 CBE         -3.5640     2.8760    -0.3940 c5         1 7TX       0.113700
     25 CAS         -4.2020     1.7330    -1.1670 c5         1 7TX       0.146800
     26 CAO         -4.3340     2.8080     0.9350 c5         1 7TX      -0.110400
     27 CAQ         -4.7820     1.3360     1.0390 c5         1 7TX       0.158800
     28 NBF         -4.2410     0.6970    -0.1560 n3         1 7TX      -0.741600
     29 CAP         -4.9070    -0.5210    -0.5580 c3         1 7TX       0.178800
     30 CAN         -4.7430    -1.6340     0.4680 c3         1 7TX      -0.076400
     31 CBD         -5.2740    -2.9920     0.0070 c3         1 7TX      -0.060700
     32 CAB         -4.9120    -4.0700     1.0240 c3         1 7TX      -0.087600
     33 CAA         -6.7810    -2.9730    -0.2330 c3         1 7TX      -0.087600
     34 H1           0.1990    -3.2110    -0.4170 hn         1 7TX       0.346500
     35 H2           4.5300    -4.4040     0.8030 ha         1 7TX       0.141000
     36 H3           6.7310    -3.2770     0.6390 ha         1 7TX       0.127000
     37 H4           6.8470    -1.0110    -0.3670 ha         1 7TX       0.119000
     38 H5           4.8810     0.0980    -1.1830 ha         1 7TX       0.123000
     39 H6           3.3260     0.6450    -2.1270 h1         1 7TX       0.072700
     40 H7           1.6680     0.4250    -2.5860 h1         1 7TX       0.072700
     41 H8          -0.0360     1.6700    -1.5940 ha         1 7TX       0.137000
     42 H9           3.7630     1.5300     0.3580 ha         1 7TX       0.117000
     43 H10          2.9860     3.1950     1.9900 ha         1 7TX       0.137000
     44 H11         -1.9220     1.6020    -0.1240 hn         1 7TX       0.338500
     45 H12         -3.6670     3.8400    -0.8890 h1         1 7TX       0.086700
     46 H13         -5.2020     2.0380    -1.5210 h1         1 7TX       0.047200
     47 H14         -3.6200     1.4210    -2.0370 h1         1 7TX       0.047200
     48 H15         -3.7240     3.1320     1.7780 hc         1 7TX       0.059200
     49 H16         -5.2000     3.4680     0.8910 hc         1 7TX       0.059200
     50 H17         -4.4130     0.8480     1.9430 h1         1 7TX       0.039200
     51 H18         -5.8800     1.2750     1.0650 h1         1 7TX       0.039200
     52 H20         -5.9760    -0.3360    -0.7540 h1         1 7TX       0.030700
     53 H21         -4.4680    -0.8490    -1.5060 h1         1 7TX       0.030700
     54 H22         -3.6780    -1.7270     0.7000 hc         1 7TX       0.045700
     55 H23         -5.2430    -1.3600     1.4050 hc         1 7TX       0.045700
     56 H24         -4.7810    -3.2430    -0.9400 hc         1 7TX       0.044700
     57 H25         -5.3530    -3.8490     2.0000 hc         1 7TX       0.032533
     58 H26         -5.2780    -5.0500     0.7120 hc         1 7TX       0.032533
     59 H27         -3.8320    -4.1460     1.1590 hc         1 7TX       0.032533
     60 H28         -7.1420    -3.9590    -0.5300 hc         1 7TX       0.032533
     61 H29         -7.3150    -2.6850     0.6770 hc         1 7TX       0.032533
     62 H30         -7.0660    -2.2710    -1.0170 hc         1 7TX       0.032533
@<TRIPOS>BOND
     1     1     2 2   
     2     2     3 1   
     3     2    12 1   
     4     3     4 1   
     5     3    34 1   
     6     4     5 2   
     7     4     6 1   
     8     6     7 ar  
     9     6    11 ar  
    10     7     8 ar  
    11     7    35 1   
    12     8     9 ar  
    13     8    36 1   
    14     9    10 ar  
    15     9    37 1   
    16    10    11 ar  
    17    10    38 1   
    18    11    12 1   
    19    12    13 1   
    20    13    14 1   
    21    13    39 1   
    22    13    40 1   
    23    14    15 ar  
    24    14    16 ar  
    25    15    20 ar  
    26    15    41 1   
    27    16    17 ar  
    28    16    42 1   
    29    17    18 ar  
    30    17    43 1   
    31    18    19 1   
    32    18    20 ar  
    33    20    21 1   
    34    21    22 2   
    35    21    23 1   
    36    23    24 1   
    37    23    44 1   
    38    24    25 1   
    39    24    26 1   
    40    24    45 1   
    41    25    28 1   
    42    25    46 1   
    43    25    47 1   
    44    26    27 1   
    45    26    48 1   
    46    26    49 1   
    47    27    28 1   
    48    27    50 1   
    49    27    51 1   
    50    28    29 1   
    51    29    30 1   
    52    29    52 1   
    53    29    53 1   
    54    30    31 1   
    55    30    54 1   
    56    30    55 1   
    57    31    32 1   
    58    31    33 1   
    59    31    56 1   
    60    32    57 1   
    61    32    58 1   
    62    32    59 1   
    63    33    60 1   
    64    33    61 1   
    65    33    62 1   
@<TRIPOS>SUBSTRUCTURE
     1 7TX         1 TEMP              0 ****  ****    0 ROOT
