@<TRIPOS>MOLECULE
7TX
   62    65     1     0     0
SMALL
No Charge or Current Charge


@<TRIPOS>ATOM
      1 OAE          0.2200    -1.6420    -3.2420 o          1 7TX      -0.560000
      2 CBA          0.5510    -1.7820    -2.0770 c          1 7TX       0.625000
      3 NAU         -0.0930    -2.6840    -1.2960 ns         1 7TX      -0.465500
      4 CAZ          0.1160    -2.9710     0.0110 c          1 7TX       0.597600
      5 OAD         -0.5560    -3.8110     0.5870 o          1 7TX      -0.524000
      6 CBB          1.2160    -2.2050     0.6710 ca         1 7TX      -0.219600
      7 CAK          1.5370    -2.4430     2.0240 ca         1 7TX      -0.014000
      8 CAG          2.5910    -1.7440     2.6310 ca         1 7TX      -0.153000
      9 CAH          3.3340    -0.8150     1.8890 ca         1 7TX      -0.045000
     10 CAL          3.0150    -0.5770     0.5430 ca         1 7TX      -0.178000
     11 CBC          1.9360    -1.2510    -0.0740 ca         1 7TX       0.130600
     12 NBG          1.5850    -1.0460    -1.4600 n          1 7TX      -0.304000
     13 CAR          2.2690     0.0140    -2.2520 c3         1 7TX       0.159300
     14 CAW          2.0220     1.4460    -1.7690 ca         1 7TX      -0.148300
     15 CAM          0.8500     1.7900    -1.0620 ca         1 7TX      -0.029000
     16 CAI          2.9900     2.4320    -2.0230 ca         1 7TX      -0.051000
     17 CAJ          2.7930     3.7420    -1.5670 ca         1 7TX      -0.170000
     18 CAX          1.6350     4.0800    -0.8500 ca         1 7TX       0.233000
     19 FAF          1.4950     5.3630    -0.4450 f          1 7TX      -0.156000
     20 CAY          0.6410     3.1100    -0.5860 ca         1 7TX      -0.197600
     21 CAV         -0.5960     3.4560     0.2120 c          1 7TX       0.618700
     22 OAC         -0.6670     4.4370     0.9400 o          1 7TX      -0.591100
     23 NAT         -1.6350     2.5560     0.1070 ns         1 7TX      -0.490900
     24 CBE         -2.7790     2.6550     1.0280 c5         1 7TX       0.113700
     25 CAS         -3.9230     1.8850     0.3060 c5         1 7TX       0.146800
     26 CAO         -2.4100     1.6970     2.2100 c5         1 7TX      -0.110400
     27 CAQ         -3.1370     0.3580     1.8670 c5         1 7TX       0.158800
     28 NBF         -3.4450     0.4860     0.4220 n3         1 7TX      -0.741600
     29 CAP         -4.3470    -0.5390    -0.1450 c3         1 7TX       0.178800
     30 CAN         -3.7530    -1.9660    -0.1250 c3         1 7TX      -0.076400
     31 CBD         -4.6070    -3.0310    -0.8650 c3         1 7TX      -0.060700
     32 CAB         -3.8620    -4.3830    -0.9430 c3         1 7TX      -0.087600
     33 CAA         -6.0100    -3.2140    -0.2380 c3         1 7TX      -0.087600
     34 H1          -0.8260    -3.2050    -1.7480 hn         1 7TX       0.346500
     35 H2           0.9770    -3.1740     2.6060 ha         1 7TX       0.141000
     36 H3           2.8380    -1.9300     3.6740 ha         1 7TX       0.127000
     37 H4           4.1600    -0.2820     2.3560 ha         1 7TX       0.119000
     38 H5           3.6170     0.1440    -0.0010 ha         1 7TX       0.123000
     39 H6           3.3460    -0.1930    -2.2320 h1         1 7TX       0.072700
     40 H7           1.9770    -0.0410    -3.3080 h1         1 7TX       0.072700
     41 H8           0.1190     1.0120    -0.8610 ha         1 7TX       0.137000
     42 H9           3.8970     2.1840    -2.5710 ha         1 7TX       0.117000
     43 H10          3.5420     4.5040    -1.7650 ha         1 7TX       0.137000
     44 H11         -1.5220     1.7670    -0.5130 hn         1 7TX       0.338500
     45 H12         -3.0480     3.6790     1.3250 h1         1 7TX       0.086700
     46 H13         -4.8830     2.0280     0.8230 h1         1 7TX       0.047200
     47 H14         -4.0480     2.2060    -0.7370 h1         1 7TX       0.047200
     48 H15         -1.3290     1.5540     2.3250 hc         1 7TX       0.059200
     49 H16         -2.7730     2.0900     3.1650 hc         1 7TX       0.059200
     50 H17         -2.5050    -0.5140     2.0850 h1         1 7TX       0.039200
     51 H18         -4.0600     0.2600     2.4570 h1         1 7TX       0.039200
     52 H20         -5.2980    -0.5360     0.4050 h1         1 7TX       0.030700
     53 H21         -4.5730    -0.2800    -1.1880 h1         1 7TX       0.030700
     54 H22         -2.7610    -1.9240    -0.5900 hc         1 7TX       0.045700
     55 H23         -3.6010    -2.2860     0.9130 hc         1 7TX       0.045700
     56 H24         -4.7510    -2.6830    -1.8960 hc         1 7TX       0.044700
     57 H25         -3.6740    -4.7840     0.0600 hc         1 7TX       0.032533
     58 H26         -4.4500    -5.1200    -1.5030 hc         1 7TX       0.032533
     59 H27         -2.8980    -4.2670    -1.4520 hc         1 7TX       0.032533
     60 H28         -6.5700    -3.9940    -0.7660 hc         1 7TX       0.032533
     61 H29         -5.9310    -3.5040     0.8170 hc         1 7TX       0.032533
     62 H30         -6.5960    -2.2890    -0.2990 hc         1 7TX       0.032533
@<TRIPOS>BOND
     1     1     2 2   
     2     2     3 1   
     3     2    12 1   
     4     3     4 1   
     5     3    34 1   
     6     4     5 2   
     7     4     6 1   
     8     6     7 ar  
     9     6    11 ar  
    10     7     8 ar  
    11     7    35 1   
    12     8     9 ar  
    13     8    36 1   
    14     9    10 ar  
    15     9    37 1   
    16    10    11 ar  
    17    10    38 1   
    18    11    12 1   
    19    12    13 1   
    20    13    14 1   
    21    13    39 1   
    22    13    40 1   
    23    14    15 ar  
    24    14    16 ar  
    25    15    20 ar  
    26    15    41 1   
    27    16    17 ar  
    28    16    42 1   
    29    17    18 ar  
    30    17    43 1   
    31    18    19 1   
    32    18    20 ar  
    33    20    21 1   
    34    21    22 2   
    35    21    23 1   
    36    23    24 1   
    37    23    44 1   
    38    24    25 1   
    39    24    26 1   
    40    24    45 1   
    41    25    28 1   
    42    25    46 1   
    43    25    47 1   
    44    26    27 1   
    45    26    48 1   
    46    26    49 1   
    47    27    28 1   
    48    27    50 1   
    49    27    51 1   
    50    28    29 1   
    51    29    30 1   
    52    29    52 1   
    53    29    53 1   
    54    30    31 1   
    55    30    54 1   
    56    30    55 1   
    57    31    32 1   
    58    31    33 1   
    59    31    56 1   
    60    32    57 1   
    61    32    58 1   
    62    32    59 1   
    63    33    60 1   
    64    33    61 1   
    65    33    62 1   
@<TRIPOS>SUBSTRUCTURE
     1 7TX         1 TEMP              0 ****  ****    0 ROOT
