@<TRIPOS>MOLECULE
7TY
   67    70     1     0     0
SMALL
No Charge or Current Charge


@<TRIPOS>ATOM
      1 C4           0.6890     4.3350     2.0910 ca         1 7TY      -0.073000
      2 C5           0.3720     3.1540     1.3870 ca         1 7TY      -0.150300
      3 C6           1.4960     2.2020     0.9760 c3         1 7TY       0.163300
      4 C7          -2.6270     1.2600     0.1880 c3         1 7TY       0.165600
      5 C8          -2.5650    -0.1260    -0.4780 c3         1 7TY      -0.091400
      6 C10         -3.8900    -2.0810    -1.5040 c3         1 7TY      -0.055400
      7 C13          1.8570     3.0570    -1.5070 c5         1 7TY       0.112700
      8 C15          1.5660    -0.5580    -0.2100 ca         1 7TY      -0.157600
      9 C17          2.6790    -0.6510     0.6550 ca         1 7TY      -0.071500
     10 C20          1.0240    -2.8870     0.3210 ca         1 7TY      -0.124500
     11 C21          2.4100    -4.1910     1.9710 cc         1 7TY      -0.181000
     12 C22          3.4410    -4.4720     2.8930 cc         1 7TY      -0.181000
     13 C24          3.2530    -5.7620     3.3060 cd         1 7TY       0.088900
     14 C26          3.5400     4.1500    -2.8580 c5         1 7TY      -0.080400
     15 C28          2.1350     4.4400    -0.8550 c5         1 7TY      -0.087900
     16 O3           0.8120     0.5960    -2.1430 o          1 7TY      -0.597100
     17 C14          1.2740     0.6980    -1.0110 c          1 7TY       0.636700
     18 C18          2.9400    -1.8360     1.3630 ca         1 7TY      -0.124500
     19 C19          2.1140    -2.9670     1.2140 ca         1 7TY       0.048000
     20 C23          1.6570    -5.3380     1.8840 cd         1 7TY       0.199900
     21 O4           2.1570    -6.3300     2.7010 os         1 7TY      -0.210000
     22 C16          0.7630    -1.7030    -0.3900 ca         1 7TY      -0.071500
     23 N            1.6660     1.9630    -0.4940 n          1 7TY      -0.410800
     24 C27          2.7410     5.2230    -2.0520 c5         1 7TY      -0.080400
     25 C25          3.2660     2.8130    -2.1120 c5         1 7TY      -0.087900
     26 C3          -0.3230     5.2240     2.4850 ca         1 7TY      -0.158000
     27 C2          -1.6640     4.9360     2.1930 ca         1 7TY      -0.072000
     28 C1          -1.9950     3.7520     1.5160 ca         1 7TY      -0.194000
     29 C           -0.9820     2.8500     1.1160 ca         1 7TY       0.169100
     30 O           -1.2790     1.6600     0.4820 os         1 7TY      -0.350100
     31 C9          -3.9570    -0.6880    -0.8390 c3         1 7TY      -0.075400
     32 C11         -5.2840    -2.6490    -1.8670 c3         1 7TY      -0.206400
     33 C12         -5.1420    -4.0340    -2.5230 c          1 7TY       0.722000
     34 O1          -5.1280    -5.0180    -1.7980 o          1 7TY      -0.746500
     35 O2          -5.0030    -4.0870    -3.7360 o          1 7TY      -0.746500
     36 H3           1.7250     4.5710     2.3270 ha         1 7TY       0.105000
     37 H5           2.4510     2.5660     1.3750 h1         1 7TY       0.060700
     38 H4           1.2880     1.2600     1.4950 h1         1 7TY       0.060700
     39 H7          -3.1050     1.9760    -0.4930 h1         1 7TY       0.032200
     40 H6          -3.2220     1.1950     1.1090 h1         1 7TY       0.032200
     41 H8          -1.9580    -0.0550    -1.3890 hc         1 7TY       0.055200
     42 H9          -2.0610    -0.8230     0.2010 hc         1 7TY       0.055200
     43 H13         -3.2790    -2.0170    -2.4130 hc         1 7TY       0.036200
     44 H12         -3.3810    -2.7790    -0.8270 hc         1 7TY       0.036200
     45 H16          1.0600     3.1030    -2.2630 h1         1 7TY       0.049700
     46 H18          3.3580     0.1910     0.7730 ha         1 7TY       0.118000
     47 H20          0.3690    -3.7370     0.1600 ha         1 7TY       0.122000
     48 H21          4.2280    -3.7970     3.2120 ha         1 7TY       0.127000
     49 H23          3.8130    -6.3710     4.0040 h4         1 7TY       0.040100
     50 H26          3.1860     4.1030    -3.8950 hc         1 7TY       0.036950
     51 H27          4.6110     4.3750    -2.8980 hc         1 7TY       0.036950
     52 H30          1.2240     4.9260    -0.4910 hc         1 7TY       0.052950
     53 H31          2.8500     4.3880    -0.0260 hc         1 7TY       0.052950
     54 H19          3.7990    -1.8700     2.0270 ha         1 7TY       0.122000
     55 H22          0.7740    -5.5780     1.3050 h4         1 7TY       0.122100
     56 H17         -0.0770    -1.6760    -1.0810 ha         1 7TY       0.118000
     57 H28          3.3790     6.0490    -1.7160 hc         1 7TY       0.036950
     58 H29          1.9510     5.6620    -2.6720 hc         1 7TY       0.036950
     59 H25          4.0200     2.6340    -1.3350 hc         1 7TY       0.052950
     60 H24          3.2910     1.9520    -2.7900 hc         1 7TY       0.052950
     61 H2          -0.0670     6.1360     3.0180 ha         1 7TY       0.108000
     62 H1          -2.4470     5.6270     2.4990 ha         1 7TY       0.106000
     63 H           -3.0430     3.5490     1.3160 ha         1 7TY       0.120000
     64 H11         -4.5670    -0.7510     0.0710 hc         1 7TY       0.028200
     65 H10         -4.4630     0.0120    -1.5170 hc         1 7TY       0.028200
     66 H15         -5.8320    -2.7290    -0.9200 hc         1 7TY       0.019700
     67 H14         -5.7250    -1.9350    -2.5730 hc         1 7TY       0.019700
@<TRIPOS>BOND
     1     1     2 ar  
     2     1    26 ar  
     3     1    36 1   
     4     2     3 1   
     5     2    29 ar  
     6     3    23 1   
     7     3    37 1   
     8     3    38 1   
     9     4     5 1   
    10     4    30 1   
    11     4    39 1   
    12     4    40 1   
    13     5    31 1   
    14     5    41 1   
    15     5    42 1   
    16     6    31 1   
    17     6    32 1   
    18     6    43 1   
    19     6    44 1   
    20     7    15 1   
    21     7    23 1   
    22     7    25 1   
    23     7    45 1   
    24     8     9 ar  
    25     8    17 1   
    26     8    22 ar  
    27     9    18 ar  
    28     9    46 1   
    29    10    19 ar  
    30    10    22 ar  
    31    10    47 1   
    32    11    12 1   
    33    11    19 1   
    34    11    20 2   
    35    12    13 2   
    36    12    48 1   
    37    13    21 1   
    38    13    49 1   
    39    14    24 1   
    40    14    25 1   
    41    14    50 1   
    42    14    51 1   
    43    15    24 1   
    44    15    52 1   
    45    15    53 1   
    46    16    17 2   
    47    17    23 1   
    48    18    19 ar  
    49    18    54 1   
    50    20    21 1   
    51    20    55 1   
    52    22    56 1   
    53    24    57 1   
    54    24    58 1   
    55    25    59 1   
    56    25    60 1   
    57    26    27 ar  
    58    26    61 1   
    59    27    28 ar  
    60    27    62 1   
    61    28    29 ar  
    62    28    63 1   
    63    29    30 1   
    64    31    64 1   
    65    31    65 1   
    66    32    33 1   
    67    32    66 1   
    68    32    67 1   
    69    33    34 1   
    70    33    35 1   
@<TRIPOS>SUBSTRUCTURE
     1 7TY         1 TEMP              0 ****  ****    0 ROOT
