@<TRIPOS>MOLECULE
7TY
   67    70     1     0     0
SMALL
abcg2


@<TRIPOS>ATOM
      1 C4           0.0730     4.5740     1.4600 ca         1 7TY      -0.073000
      2 C5          -0.0010     3.3420     0.8260 ca         1 7TY      -0.150300
      3 C6           1.1740     2.3900     0.8320 c3         1 7TY       0.163300
      4 C7          -2.5480     1.0930    -0.3680 c3         1 7TY       0.165600
      5 C8          -2.2990    -0.3950    -0.4690 c3         1 7TY      -0.091400
      6 C10         -3.2000    -2.7290    -0.3120 c3         1 7TY      -0.055400
      7 C13          2.3780     3.5410    -0.9970 c5         1 7TY       0.112700
      8 C15          1.5600    -0.1490    -0.6370 ca         1 7TY      -0.157600
      9 C17          2.2660    -0.4950     0.5130 ca         1 7TY      -0.071500
     10 C20          0.7430    -2.4160    -0.7700 ca         1 7TY      -0.124500
     11 C21          1.2560    -4.0840     1.0010 cc         1 7TY      -0.181000
     12 C22          2.1770    -4.7610     1.8690 cc         1 7TY      -0.181000
     13 C24          1.6130    -5.9540     2.1590 cd         1 7TY       0.088900
     14 C26          3.9850     4.8230    -2.2280 c5         1 7TY      -0.080400
     15 C28          3.2710     4.2450     0.0410 c5         1 7TY      -0.087900
     16 O3           1.5990     1.2760    -2.4930 o          1 7TY      -0.597100
     17 C14          1.6440     1.2030    -1.2740 c          1 7TY       0.636700
     18 C18          2.1860    -1.7770     1.0320 ca         1 7TY      -0.124500
     19 C19          1.3980    -2.7520     0.4160 ca         1 7TY       0.048000
     20 C23          0.2020    -4.9340     0.8530 cd         1 7TY       0.199900
     21 O4           0.4140    -6.0650     1.5500 os         1 7TY      -0.210000
     22 C16          0.8320    -1.1390    -1.2900 ca         1 7TY      -0.071500
     23 N            1.8480     2.2820    -0.4650 n          1 7TY      -0.410800
     24 C27          4.1270     5.2420    -0.7540 c5         1 7TY      -0.080400
     25 C25          3.3270     3.4450    -2.1960 c5         1 7TY      -0.087900
     26 C3          -1.0030     5.4520     1.4920 ca         1 7TY      -0.158000
     27 C2          -2.1880     5.0860     0.8750 ca         1 7TY      -0.072000
     28 C1          -2.3020     3.8500     0.2520 ca         1 7TY      -0.194000
     29 C           -1.2190     2.9740     0.2340 ca         1 7TY       0.169100
     30 O           -1.2800     1.7460    -0.3140 os         1 7TY      -0.350100
     31 C9          -3.5480    -1.2450    -0.2790 c3         1 7TY      -0.075400
     32 C11         -4.3850    -3.6430    -0.0560 c3         1 7TY      -0.206400
     33 C12         -4.0770    -5.1510    -0.0440 c          1 7TY       0.722000
     34 O1          -2.8920    -5.5130    -0.2080 o          1 7TY      -0.746500
     35 O2          -5.0540    -5.9070     0.1340 o          1 7TY      -0.746500
     36 H3           0.9920     4.8500     1.9640 ha         1 7TY       0.105000
     37 H5           1.8910     2.7120     1.5880 h1         1 7TY       0.060700
     38 H4           0.8250     1.4060     1.1350 h1         1 7TY       0.060700
     39 H7          -3.1290     1.4570    -1.2220 h1         1 7TY       0.032200
     40 H6          -3.1180     1.3200     0.5400 h1         1 7TY       0.032200
     41 H8          -1.8470    -0.6300    -1.4360 hc         1 7TY       0.055200
     42 H9          -1.5670    -0.6730     0.2920 hc         1 7TY       0.055200
     43 H13         -2.7500    -2.9730    -1.2790 hc         1 7TY       0.036200
     44 H12         -2.4210    -2.9200     0.4330 hc         1 7TY       0.036200
     45 H16          1.5460     4.2060    -1.2670 h1         1 7TY       0.049700
     46 H18          2.8900     0.2340     1.0140 ha         1 7TY       0.118000
     47 H20          0.1570    -3.1600    -1.2930 ha         1 7TY       0.122000
     48 H21          3.1370    -4.4100     2.2100 ha         1 7TY       0.127000
     49 H23          1.9350    -6.7920     2.7560 h4         1 7TY       0.040100
     50 H26          3.3390     5.5240    -2.7610 hc         1 7TY       0.036950
     51 H27          4.9370     4.8070    -2.7590 hc         1 7TY       0.036950
     52 H30          2.7140     4.7380     0.8350 hc         1 7TY       0.052950
     53 H31          3.9040     3.4900     0.5160 hc         1 7TY       0.052950
     54 H19          2.7280    -2.0120     1.9390 ha         1 7TY       0.122000
     55 H22         -0.7440    -4.8600     0.3320 h4         1 7TY       0.122100
     56 H17          0.3130    -0.9030    -2.2080 ha         1 7TY       0.118000
     57 H28          5.1650     5.2060    -0.4220 hc         1 7TY       0.036950
     58 H29          3.7880     6.2670    -0.6000 hc         1 7TY       0.036950
     59 H25          4.0770     2.6700    -2.0060 hc         1 7TY       0.052950
     60 H24          2.8330     3.2080    -3.1330 hc         1 7TY       0.052950
     61 H2          -0.9150     6.4040     1.9980 ha         1 7TY       0.108000
     62 H1          -3.0380     5.7560     0.8830 ha         1 7TY       0.106000
     63 H           -3.2400     3.5750    -0.2110 ha         1 7TY       0.120000
     64 H11         -4.0140    -1.0000     0.6810 hc         1 7TY       0.028200
     65 H10         -4.2910    -1.0160    -1.0500 hc         1 7TY       0.028200
     66 H15         -4.8460    -3.3850     0.9050 hc         1 7TY       0.019700
     67 H14         -5.1660    -3.4590    -0.8030 hc         1 7TY       0.019700
@<TRIPOS>BOND
     1     1     2 ar  
     2     1    26 ar  
     3     1    36 1   
     4     2     3 1   
     5     2    29 ar  
     6     3    23 1   
     7     3    37 1   
     8     3    38 1   
     9     4     5 1   
    10     4    30 1   
    11     4    39 1   
    12     4    40 1   
    13     5    31 1   
    14     5    41 1   
    15     5    42 1   
    16     6    31 1   
    17     6    32 1   
    18     6    43 1   
    19     6    44 1   
    20     7    15 1   
    21     7    23 1   
    22     7    25 1   
    23     7    45 1   
    24     8     9 ar  
    25     8    17 1   
    26     8    22 ar  
    27     9    18 ar  
    28     9    46 1   
    29    10    19 ar  
    30    10    22 ar  
    31    10    47 1   
    32    11    12 1   
    33    11    19 1   
    34    11    20 2   
    35    12    13 2   
    36    12    48 1   
    37    13    21 1   
    38    13    49 1   
    39    14    24 1   
    40    14    25 1   
    41    14    50 1   
    42    14    51 1   
    43    15    24 1   
    44    15    52 1   
    45    15    53 1   
    46    16    17 2   
    47    17    23 1   
    48    18    19 ar  
    49    18    54 1   
    50    20    21 1   
    51    20    55 1   
    52    22    56 1   
    53    24    57 1   
    54    24    58 1   
    55    25    59 1   
    56    25    60 1   
    57    26    27 ar  
    58    26    61 1   
    59    27    28 ar  
    60    27    62 1   
    61    28    29 ar  
    62    28    63 1   
    63    29    30 1   
    64    31    64 1   
    65    31    65 1   
    66    32    33 1   
    67    32    66 1   
    68    32    67 1   
    69    33    34 1   
    70    33    35 1   
@<TRIPOS>SUBSTRUCTURE
     1 7TY         1 TEMP              0 ****  ****    0 ROOT
