@<TRIPOS>MOLECULE
7TZ
   68    72     1     0     0
SMALL
abcg2


@<TRIPOS>ATOM
      1 C10        152.5890   120.1960   155.8950 ca         1 7TZ      -0.059000
      2 C15        146.6330   120.8140   156.5810 c3         1 7TZ      -0.148400
      3 C17        146.5630   119.1110   154.1830 c3         1 7TZ      -0.148400
      4 C20        151.3490   118.9230   154.2640 ca         1 7TZ      -0.053000
      5 C22        154.7820   118.1910   151.3020 c3         1 7TZ      -0.052100
      6 C24        152.5110   117.3770   150.5780 ca         1 7TZ      -0.112500
      7 C26        152.7860   119.7040   151.0660 ca         1 7TZ      -0.112500
      8 C28        150.5950   118.8430   150.5420 ca         1 7TZ       0.028000
      9 C02        156.2930   117.3310   153.2430 c          1 7TZ       0.601100
     10 C04        158.7070   117.4090   152.8490 c3         1 7TZ       0.105000
     11 C05        159.6490   117.6390   151.6820 c3         1 7TZ      -0.112100
     12 C06        154.8970   117.3620   152.6050 c3         1 7TZ       0.044700
     13 C08        153.8380   118.9730   154.1010 c          1 7TZ       0.619700
     14 C09        152.5560   119.3280   154.7820 ca         1 7TZ      -0.138600
     15 C11        151.4300   120.6230   156.4840 ca         1 7TZ      -0.084000
     16 C12        150.1840   120.2300   155.9550 ca         1 7TZ       0.241000
     17 C14        147.9060   120.3240   155.9730 ca         1 7TZ       0.330300
     18 C16        147.8690   119.4780   154.8060 ca         1 7TZ       0.322300
     19 C19        150.1460   119.3820   154.8320 ca         1 7TZ       0.215000
     20 C23        153.3420   118.4330   150.9490 ca         1 7TZ      -0.076300
     21 C25        151.1570   117.5710   150.3810 ca         1 7TZ      -0.084500
     22 C27        151.4310   119.9140   150.8660 ca         1 7TZ      -0.084500
     23 C29        149.1920   119.0310   150.4270 cg         1 7TZ      -0.077000
     24 C30        147.9940   119.1750   150.3720 ch         1 7TZ      -0.116000
     25 C31        146.5840   119.3330   150.3380 ca         1 7TZ       0.047000
     26 C32        146.0120   120.6190   150.5400 ca         1 7TZ      -0.086000
     27 C33        144.6580   120.7900   150.5370 ca         1 7TZ      -0.079000
     28 C34        145.7650   118.2430   150.1330 ca         1 7TZ      -0.058000
     29 C35        144.3670   118.4020   150.1260 ca         1 7TZ       0.220000
     30 C36        143.8040   119.6840   150.3300 ca         1 7TZ       0.223000
     31 C38        141.7280   118.8040   150.1360 ca         1 7TZ       0.298900
     32 C39        142.2920   117.5200   149.9330 ca         1 7TZ       0.297900
     33 N07        153.9040   117.7380   153.5780 ns         1 7TZ      -0.480900
     34 N13        149.0350   120.6800   156.5150 nb         1 7TZ      -0.640000
     35 N18        148.9650   119.0230   154.2730 nb         1 7TZ      -0.633000
     36 N37        142.4630   119.8620   150.3300 nb         1 7TZ      -0.623000
     37 N40        143.5780   117.3190   149.9270 nb         1 7TZ      -0.621000
     38 O01        156.4360   117.0990   154.4320 o          1 7TZ      -0.584100
     39 O21        154.7460   119.7850   154.0070 o          1 7TZ      -0.590100
     40 H101       153.5440   120.5200   156.2880 ha         1 7TZ       0.140000
     41 H153       146.8430   121.4200   157.4590 hc         1 7TZ       0.056700
     42 H152       146.0650   121.4180   155.8710 hc         1 7TZ       0.056700
     43 H151       145.9900   119.9830   156.8740 hc         1 7TZ       0.056700
     44 H173       146.7250   118.4810   153.3110 hc         1 7TZ       0.057033
     45 H172       145.9230   118.5750   154.8870 hc         1 7TZ       0.057033
     46 H171       146.0110   119.9990   153.8690 hc         1 7TZ       0.057033
     47 H201       151.2840   118.2890   153.3880 ha         1 7TZ       0.134000
     48 H221       155.2690   117.6390   150.4940 hc         1 7TZ       0.063200
     49 H222       155.3010   119.1440   151.4030 hc         1 7TZ       0.063200
     50 H241       152.9240   116.3810   150.4620 ha         1 7TZ       0.120500
     51 H261       153.4140   120.5420   151.3420 ha         1 7TZ       0.120500
     52 H041       158.8920   116.4270   153.2900 h1         1 7TZ       0.052700
     53 H042       158.8930   118.1480   153.6310 h1         1 7TZ       0.052700
     54 H051       160.6820   117.5660   152.0190 hc         1 7TZ       0.041700
     55 H052       159.5000   116.8940   150.8990 hc         1 7TZ       0.041700
     56 H053       159.5090   118.6280   151.2460 hc         1 7TZ       0.041700
     57 H061       154.6740   116.3220   152.3510 h1         1 7TZ       0.065700
     58 H111       151.4500   121.2760   157.3470 ha         1 7TZ       0.137000
     59 H251       150.5230   116.7350   150.1170 ha         1 7TZ       0.124000
     60 H271       151.0140   120.9050   150.9860 ha         1 7TZ       0.124000
     61 H321       146.6660   121.4650   150.7020 ha         1 7TZ       0.128000
     62 H331       144.2190   121.7660   150.6920 ha         1 7TZ       0.136000
     63 H341       146.1790   117.2550   149.9810 ha         1 7TZ       0.141000
     64 H381       140.6510   118.9270   150.1330 h4         1 7TZ       0.031100
     65 H391       141.6430   116.6660   149.7760 h4         1 7TZ       0.031100
     66 H031       157.1640   117.6650   151.4290 hn         1 7TZ       0.312500
     67 H071       153.1420   117.1010   153.7340 hn         1 7TZ       0.327500
     68 N03        157.3270   117.5000   152.4090 ns         1 7TZ      -0.509900
@<TRIPOS>BOND
     1     1    14 ar  
     2     1    15 ar  
     3     1    40 1   
     4     2    17 1   
     5     2    41 1   
     6     2    42 1   
     7     2    43 1   
     8     3    18 1   
     9     3    44 1   
    10     3    45 1   
    11     3    46 1   
    12     4    14 ar  
    13     4    19 ar  
    14     4    47 1   
    15     5    12 1   
    16     5    20 1   
    17     5    48 1   
    18     5    49 1   
    19     6    20 ar  
    20     6    21 ar  
    21     6    50 1   
    22     7    20 ar  
    23     7    22 ar  
    24     7    51 1   
    25     8    21 ar  
    26     8    22 ar  
    27     8    23 1   
    28     9    12 1   
    29     9    38 2   
    30     9    68 1   
    31    10    11 1   
    32    10    52 1   
    33    10    53 1   
    34    10    68 1   
    35    11    54 1   
    36    11    55 1   
    37    11    56 1   
    38    12    33 1   
    39    12    57 1   
    40    13    14 1   
    41    13    33 1   
    42    13    39 2   
    43    15    16 ar  
    44    15    58 1   
    45    16    19 ar  
    46    16    34 ar  
    47    17    18 ar  
    48    17    34 ar  
    49    18    35 ar  
    50    19    35 ar  
    51    21    59 1   
    52    22    60 1   
    53    23    24 3   
    54    24    25 1   
    55    25    26 ar  
    56    25    28 ar  
    57    26    27 ar  
    58    26    61 1   
    59    27    30 ar  
    60    27    62 1   
    61    28    29 ar  
    62    28    63 1   
    63    29    30 ar  
    64    29    37 ar  
    65    30    36 ar  
    66    31    32 ar  
    67    31    36 ar  
    68    31    64 1   
    69    32    37 ar  
    70    32    65 1   
    71    33    67 1   
    72    66    68 1   
@<TRIPOS>SUBSTRUCTURE
     1 7TZ         1 TEMP              0 ****  ****    0 ROOT
