@<TRIPOS>MOLECULE
7TZ
   68    72     1     0     0
SMALL
No Charge or Current Charge


@<TRIPOS>ATOM
      1 C10        151.9070   120.7170   154.8010 ca         1 7TZ      -0.059000
      2 C15        145.8580   119.9160   154.7810 c3         1 7TZ      -0.148400
      3 C17        146.6630   117.0570   154.0350 c3         1 7TZ      -0.148400
      4 C20        151.2830   118.4380   154.2480 ca         1 7TZ      -0.053000
      5 C22        154.9790   118.2450   151.4690 c3         1 7TZ      -0.052100
      6 C24        152.5890   117.5070   150.9570 ca         1 7TZ      -0.112500
      7 C26        153.0680   119.8870   151.1000 ca         1 7TZ      -0.112500
      8 C28        150.7670   119.1230   150.8660 ca         1 7TZ       0.028000
      9 C02        156.5570   117.5040   153.4400 c          1 7TZ       0.601100
     10 C04        159.0140   117.4180   152.9120 c3         1 7TZ       0.105000
     11 C05        159.9210   117.3800   151.6730 c3         1 7TZ      -0.112100
     12 C06        155.1240   117.4630   152.8170 c3         1 7TZ       0.044700
     13 C08        153.7570   119.1200   154.1530 c          1 7TZ       0.619700
     14 C09        152.2960   119.4110   154.4370 ca         1 7TZ      -0.138600
     15 C11        150.5500   121.0450   154.9540 ca         1 7TZ      -0.084000
     16 C12        149.5430   120.0900   154.7430 ca         1 7TZ       0.241000
     17 C14        147.3120   119.4880   154.6360 ca         1 7TZ       0.330300
     18 C16        147.6870   118.1540   154.2900 ca         1 7TZ       0.322300
     19 C19        149.9190   118.7530   154.3900 ca         1 7TZ       0.215000
     20 C23        153.5200   118.5530   151.1240 ca         1 7TZ      -0.076300
     21 C25        151.2180   117.7910   150.8320 ca         1 7TZ      -0.084500
     22 C27        151.6970   120.1710   150.9770 ca         1 7TZ      -0.084500
     23 C29        149.3640   119.4100   150.8660 cg         1 7TZ      -0.077000
     24 C30        148.1710   119.6580   150.9220 ch         1 7TZ      -0.116000
     25 C31        146.7820   119.9480   151.0360 ca         1 7TZ       0.047000
     26 C32        146.3630   121.2170   151.4650 ca         1 7TZ      -0.086000
     27 C33        144.9930   121.4980   151.5970 ca         1 7TZ      -0.079000
     28 C34        145.8270   118.9610   150.7430 ca         1 7TZ      -0.058000
     29 C35        144.4510   119.2210   150.8730 ca         1 7TZ       0.220000
     30 C36        144.0230   120.5210   151.3100 ca         1 7TZ       0.223000
     31 C38        141.8210   119.8340   151.1650 ca         1 7TZ       0.298900
     32 C39        142.2420   118.5530   150.7360 ca         1 7TZ       0.297900
     33 N07        154.0630   117.8230   153.7930 ns         1 7TZ      -0.480900
     34 N13        148.2390   120.4540   154.8700 nb         1 7TZ      -0.640000
     35 N18        148.9890   117.7860   154.1710 nb         1 7TZ      -0.633000
     36 N37        142.7050   120.8260   151.4560 nb         1 7TZ      -0.623000
     37 N40        143.5560   118.2360   150.5860 nb         1 7TZ      -0.621000
     38 O01        156.7690   117.6090   154.6430 o          1 7TZ      -0.584100
     39 O21        154.6060   120.0010   154.1510 o          1 7TZ      -0.590100
     40 H101       152.6560   121.4940   154.9440 ha         1 7TZ       0.140000
     41 H153       145.7560   121.0080   154.8060 hc         1 7TZ       0.056700
     42 H152       145.2520   119.5510   153.9450 hc         1 7TZ       0.056700
     43 H151       145.4280   119.5190   155.7080 hc         1 7TZ       0.056700
     44 H173       147.1390   116.0850   153.8630 hc         1 7TZ       0.057033
     45 H172       145.9870   116.9470   154.8910 hc         1 7TZ       0.057033
     46 H171       146.0550   117.2870   153.1530 hc         1 7TZ       0.057033
     47 H201       151.5300   117.4240   153.9490 ha         1 7TZ       0.134000
     48 H221       155.4420   117.6700   150.6580 hc         1 7TZ       0.063200
     49 H222       155.5460   119.1810   151.5430 hc         1 7TZ       0.063200
     50 H241       152.9220   116.4710   150.9760 ha         1 7TZ       0.120500
     51 H261       153.7700   120.7070   151.2360 ha         1 7TZ       0.120500
     52 H041       159.2280   116.5500   153.5510 h1         1 7TZ       0.052700
     53 H042       159.2200   118.3300   153.4880 h1         1 7TZ       0.052700
     54 H051       160.9750   117.3970   151.9730 hc         1 7TZ       0.041700
     55 H052       159.7450   116.4670   151.0910 hc         1 7TZ       0.041700
     56 H053       159.7330   118.2470   151.0280 hc         1 7TZ       0.041700
     57 H061       154.9590   116.4060   152.5720 h1         1 7TZ       0.065700
     58 H111       150.2730   122.0610   155.2230 ha         1 7TZ       0.137000
     59 H251       150.5030   116.9750   150.7500 ha         1 7TZ       0.124000
     60 H271       151.3560   121.2040   151.0100 ha         1 7TZ       0.124000
     61 H321       147.0970   121.9850   151.7010 ha         1 7TZ       0.128000
     62 H331       144.6780   122.4840   151.9310 ha         1 7TZ       0.136000
     63 H341       146.1520   117.9770   150.4150 ha         1 7TZ       0.141000
     64 H381       140.7630   120.0670   151.2780 h4         1 7TZ       0.031100
     65 H391       141.5170   117.7730   150.5090 h4         1 7TZ       0.031100
     66 H031       157.3590   117.3000   151.5620 hn         1 7TZ       0.312500
     67 H071       153.3220   117.1480   153.9240 hn         1 7TZ       0.327500
     68 N03        157.6000   117.3970   152.5410 ns         1 7TZ      -0.509900
@<TRIPOS>BOND
     1     1    14 ar  
     2     1    15 ar  
     3     1    40 1   
     4     2    17 1   
     5     2    41 1   
     6     2    42 1   
     7     2    43 1   
     8     3    18 1   
     9     3    44 1   
    10     3    45 1   
    11     3    46 1   
    12     4    14 ar  
    13     4    19 ar  
    14     4    47 1   
    15     5    12 1   
    16     5    20 1   
    17     5    48 1   
    18     5    49 1   
    19     6    20 ar  
    20     6    21 ar  
    21     6    50 1   
    22     7    20 ar  
    23     7    22 ar  
    24     7    51 1   
    25     8    21 ar  
    26     8    22 ar  
    27     8    23 1   
    28     9    12 1   
    29     9    38 2   
    30     9    68 1   
    31    10    11 1   
    32    10    52 1   
    33    10    53 1   
    34    10    68 1   
    35    11    54 1   
    36    11    55 1   
    37    11    56 1   
    38    12    33 1   
    39    12    57 1   
    40    13    14 1   
    41    13    33 1   
    42    13    39 2   
    43    15    16 ar  
    44    15    58 1   
    45    16    19 ar  
    46    16    34 ar  
    47    17    18 ar  
    48    17    34 ar  
    49    18    35 ar  
    50    19    35 ar  
    51    21    59 1   
    52    22    60 1   
    53    23    24 3   
    54    24    25 1   
    55    25    26 ar  
    56    25    28 ar  
    57    26    27 ar  
    58    26    61 1   
    59    27    30 ar  
    60    27    62 1   
    61    28    29 ar  
    62    28    63 1   
    63    29    30 ar  
    64    29    37 ar  
    65    30    36 ar  
    66    31    32 ar  
    67    31    36 ar  
    68    31    64 1   
    69    32    37 ar  
    70    32    65 1   
    71    33    67 1   
    72    66    68 1   
@<TRIPOS>SUBSTRUCTURE
     1 7TZ         1 TEMP              0 ****  ****    0 ROOT
