@<TRIPOS>MOLECULE
7U0
   96   102     1     0     0
SMALL
abcg2


@<TRIPOS>ATOM
      1 C2          -7.0430    -3.5520    -1.8930 ca         1 7U0       0.321000
      2 C4          -6.5360    -4.2290     0.2300 ca         1 7U0       0.321000
      3 C5          -6.3980    -5.5460    -0.1640 ca         1 7U0      -0.156500
      4 C6          -6.5910    -5.8660    -1.5120 ca         1 7U0       0.176100
      5 C47         -8.1810    -7.4890     7.4490 c5         1 7U0      -0.094900
      6 C46         -6.9210    -7.4860     8.3550 c5         1 7U0      -0.094900
      7 C45         -6.4540    -6.0240     8.3600 c5         1 7U0       0.149550
      8 N40         -7.0020    -5.4720     7.1170 n3         1 7U0      -0.705600
      9 C48         -8.3570    -6.0230     7.0420 c5         1 7U0       0.149550
     10 C39         -6.9740    -4.0240     7.0320 c3         1 7U0       0.142300
     11 C38         -5.5500    -3.4990     6.9120 c3         1 7U0       0.161600
     12 C27         -5.7710    -1.6240     5.4190 ca         1 7U0       0.214100
     13 C26         -5.8080    -0.2030     5.2790 ca         1 7U0      -0.128000
     14 C25         -6.0390     0.3130     3.9740 ca         1 7U0       0.327000
     15 C29         -6.0820     1.7160     3.8010 ca         1 7U0      -0.104500
     16 C30         -5.9030     2.5590     4.8710 ca         1 7U0      -0.084500
     17 C31         -5.6740     2.0410     6.1620 ca         1 7U0      -0.135000
     18 C32         -5.6290     0.6820     6.3620 ca         1 7U0      -0.057000
     19 N24         -6.2180    -0.4860     2.8880 nb         1 7U0      -0.749500
     20 C14         -6.1680    -1.7890     3.0690 ca         1 7U0       0.529400
     21 C28         -5.9520    -2.4210     4.3130 ca         1 7U0      -0.289500
     22 N13         -6.3570    -2.5250     1.8970 ns         1 7U0      -0.305900
     23 C11         -6.3100    -3.8640     1.6780 c          1 7U0       0.522600
     24 O12         -6.1010    -4.7220     2.5260 o          1 7U0      -0.577600
     25 N3          -6.8540    -3.2420    -0.6140 nb         1 7U0      -0.702000
     26 C1          -6.9220    -4.8400    -2.3990 ca         1 7U0      -0.156500
     27 O49         -6.4410    -7.1520    -1.8550 os         1 7U0      -0.345100
     28 C50         -6.6140    -7.5280    -3.2340 c3         1 7U0       0.160600
     29 C51         -6.3710    -9.0210    -3.3280 c3         1 7U0       0.146800
     30 N52         -6.5660    -9.4480    -4.7160 n8         1 7U0      -1.005200
     31 C7          -7.4130    -2.4320    -2.8370 c          1 7U0       0.522600
     32 O8          -7.5450    -2.6300    -4.0380 o          1 7U0      -0.577600
     33 N9          -7.5760    -1.2410    -2.2060 ns         1 7U0      -0.305900
     34 C10         -7.9220     0.0150    -2.7100 ca         1 7U0       0.529400
     35 C15         -8.1120     0.2340    -4.0930 ca         1 7U0      -0.289500
     36 C16         -8.4500     1.5030    -4.5030 ca         1 7U0       0.214100
     37 C17         -8.5980     2.5440    -3.5370 ca         1 7U0      -0.128000
     38 C18         -8.3760     2.1990    -2.1760 ca         1 7U0       0.327000
     39 N19         -8.0420     0.9390    -1.7820 nb         1 7U0      -0.749500
     40 C23         -8.5100     3.2070    -1.1930 ca         1 7U0      -0.104500
     41 C22         -8.8480     4.4900    -1.5480 ca         1 7U0      -0.084500
     42 C21         -9.0660     4.8270    -2.8990 ca         1 7U0      -0.135000
     43 C20         -8.9420     3.8690    -3.8770 ca         1 7U0      -0.057000
     44 O33         -8.6570     1.8540    -5.7790 os         1 7U0      -0.350600
     45 C34         -8.4900     0.8700    -6.8140 c3         1 7U0       0.161600
     46 C35         -8.7700     1.5650    -8.1320 c3         1 7U0       0.142300
     47 N36         -8.6400     0.6160    -9.2390 n3         1 7U0      -0.705600
     48 C41         -9.8740    -0.1610    -9.4610 c5         1 7U0       0.149550
     49 C42        -10.7960     0.7130   -10.3510 c5         1 7U0      -0.094900
     50 C43         -9.8340     1.7220   -11.0230 c5         1 7U0      -0.094900
     51 C44         -8.4370     1.2820   -10.5340 c5         1 7U0       0.149550
     52 H54         -6.1410    -6.3140     0.5510 ha         1 7U0       0.161500
     53 H88         -8.0180    -8.1120     6.5700 hc         1 7U0       0.047700
     54 H85         -7.1350    -7.8340     9.3650 hc         1 7U0       0.047700
     55 H86         -6.1490    -8.1340     7.9400 hc         1 7U0       0.047700
     56 H84         -5.3690    -5.9240     8.3920 h1         1 7U0       0.046825
     57 H83         -6.8680    -5.4890     9.2330 h1         1 7U0       0.046825
     58 H90         -9.0270    -5.5070     7.7510 h1         1 7U0       0.046825
     59 H89         -8.7680    -5.8940     6.0390 h1         1 7U0       0.046825
     60 H73         -7.5420    -3.7250     6.1490 h1         1 7U0       0.046700
     61 H74         -7.4570    -3.5550     7.9070 h1         1 7U0       0.046700
     62 H72         -5.0020    -4.0250     6.1290 h1         1 7U0       0.061450
     63 H71         -5.0050    -3.6080     7.8470 h1         1 7U0       0.061450
     64 H63         -6.2580     2.1020     2.8050 ha         1 7U0       0.132500
     65 H64         -5.9360     3.6310     4.7230 ha         1 7U0       0.114000
     66 H65         -5.5350     2.7180     6.9960 ha         1 7U0       0.114500
     67 H66         -5.4550     0.2770     7.3490 ha         1 7U0       0.125000
     68 H62         -5.9410    -3.4940     4.3580 ha         1 7U0       0.163500
     69 H56         -6.5340    -1.9630     1.0720 hn         1 7U0       0.191500
     70 H53         -7.0870    -5.0100    -3.4510 ha         1 7U0       0.161500
     71 H92         -5.9030    -6.9810    -3.8560 h1         1 7U0       0.053700
     72 H91         -7.6300    -7.2790    -3.5510 h1         1 7U0       0.053700
     73 H94         -7.0250    -9.5340    -2.6120 h1         1 7U0       0.047700
     74 H93         -5.3390    -9.2320    -3.0410 h1         1 7U0       0.047700
     75 H97         -6.2380   -10.4000    -4.8300 hn         1 7U0       0.402500
     76 H95         -7.5560    -9.4590    -4.9390 hn         1 7U0       0.402500
     77 H55         -7.4370    -1.2670    -1.2030 hn         1 7U0       0.191500
     78 H57         -7.9890    -0.5830    -4.7800 ha         1 7U0       0.163500
     79 H61         -8.3400     2.9360    -0.1580 ha         1 7U0       0.132500
     80 H60         -8.9470     5.2510    -0.7840 ha         1 7U0       0.114000
     81 H59         -9.3300     5.8420    -3.1640 ha         1 7U0       0.114500
     82 H58         -9.1080     4.1190    -4.9160 ha         1 7U0       0.125000
     83 H68         -9.1820     0.0430    -6.6400 h1         1 7U0       0.061450
     84 H67         -7.4680     0.4850    -6.7930 h1         1 7U0       0.061450
     85 H70         -8.0340     2.3590    -8.2680 h1         1 7U0       0.046700
     86 H69         -9.7600     2.0420    -8.0840 h1         1 7U0       0.046700
     87 H76        -10.3330    -0.4420    -8.5150 h1         1 7U0       0.046825
     88 H75         -9.6090    -1.0800    -9.9890 h1         1 7U0       0.046825
     89 H78        -11.5440     1.2300    -9.7490 hc         1 7U0       0.047700
     90 H77        -11.3290     0.1010   -11.0780 hc         1 7U0       0.047700
     91 H79         -9.9030     1.7070   -12.1110 hc         1 7U0       0.047700
     92 H80        -10.0500     2.7400   -10.6940 hc         1 7U0       0.047700
     93 H82         -8.0150     0.5510   -11.2290 h1         1 7U0       0.046825
     94 H81         -7.7280     2.1030   -10.4370 h1         1 7U0       0.046825
     95 O37         -5.5470    -2.0820     6.6620 os         1 7U0      -0.350600
     96 H87         -9.0630    -7.8680     7.9640 hc         1 7U0       0.047700
@<TRIPOS>BOND
     1     1    25 ar  
     2     1    26 ar  
     3     1    31 1   
     4     2     3 ar  
     5     2    23 1   
     6     2    25 ar  
     7     3     4 ar  
     8     3    52 1   
     9     4    26 ar  
    10     4    27 1   
    11     5     6 1   
    12     5     9 1   
    13     5    53 1   
    14     5    96 1   
    15     6     7 1   
    16     6    54 1   
    17     6    55 1   
    18     7     8 1   
    19     7    56 1   
    20     7    57 1   
    21     8     9 1   
    22     8    10 1   
    23     9    58 1   
    24     9    59 1   
    25    10    11 1   
    26    10    60 1   
    27    10    61 1   
    28    11    62 1   
    29    11    63 1   
    30    11    95 1   
    31    12    13 ar  
    32    12    21 ar  
    33    12    95 1   
    34    13    14 ar  
    35    13    18 ar  
    36    14    15 ar  
    37    14    19 ar  
    38    15    16 ar  
    39    15    64 1   
    40    16    17 ar  
    41    16    65 1   
    42    17    18 ar  
    43    17    66 1   
    44    18    67 1   
    45    19    20 ar  
    46    20    21 ar  
    47    20    22 1   
    48    21    68 1   
    49    22    23 1   
    50    22    69 1   
    51    23    24 2   
    52    26    70 1   
    53    27    28 1   
    54    28    29 1   
    55    28    71 1   
    56    28    72 1   
    57    29    30 1   
    58    29    73 1   
    59    29    74 1   
    60    30    75 1   
    61    30    76 1   
    62    31    32 2   
    63    31    33 1   
    64    33    34 1   
    65    33    77 1   
    66    34    35 ar  
    67    34    39 ar  
    68    35    36 ar  
    69    35    78 1   
    70    36    37 ar  
    71    36    44 1   
    72    37    38 ar  
    73    37    43 ar  
    74    38    39 ar  
    75    38    40 ar  
    76    40    41 ar  
    77    40    79 1   
    78    41    42 ar  
    79    41    80 1   
    80    42    43 ar  
    81    42    81 1   
    82    43    82 1   
    83    44    45 1   
    84    45    46 1   
    85    45    83 1   
    86    45    84 1   
    87    46    47 1   
    88    46    85 1   
    89    46    86 1   
    90    47    48 1   
    91    47    51 1   
    92    48    49 1   
    93    48    87 1   
    94    48    88 1   
    95    49    50 1   
    96    49    89 1   
    97    49    90 1   
    98    50    51 1   
    99    50    91 1   
   100    50    92 1   
   101    51    93 1   
   102    51    94 1   
@<TRIPOS>SUBSTRUCTURE
     1 7U0         1 TEMP              0 ****  ****    0 ROOT
