@<TRIPOS>MOLECULE
7U0
   96   102     1     0     0
SMALL
No Charge or Current Charge


@<TRIPOS>ATOM
      1 C2          -6.8970    -3.6580    -2.0180 ca         1 7U0       0.321000
      2 C4          -6.1020    -4.3320     0.1040 ca         1 7U0       0.321000
      3 C5          -5.9390    -5.6530    -0.3530 ca         1 7U0      -0.156500
      4 C6          -6.2630    -5.9790    -1.6720 ca         1 7U0       0.176100
      5 C47         -8.8260    -7.1200     7.6740 c5         1 7U0      -0.094900
      6 C46         -7.6540    -7.2280     8.7020 c5         1 7U0      -0.094900
      7 C45         -7.0380    -5.8030     8.7220 c5         1 7U0       0.149550
      8 N40         -7.3750    -5.3100     7.3680 n3         1 7U0      -0.705600
      9 C48         -8.8130    -5.6280     7.2540 c5         1 7U0       0.149550
     10 C39         -7.0210    -3.8970     7.0800 c3         1 7U0       0.142300
     11 C38         -5.4980    -3.5950     7.1060 c3         1 7U0       0.161600
     12 C27         -5.4410    -1.7150     5.4700 ca         1 7U0       0.214100
     13 C26         -5.4240    -0.3210     5.2650 ca         1 7U0      -0.128000
     14 C25         -5.5910     0.1780     3.9500 ca         1 7U0       0.327000
     15 C29         -5.5820     1.5700     3.7460 ca         1 7U0      -0.104500
     16 C30         -5.4100     2.4600     4.8190 ca         1 7U0      -0.084500
     17 C31         -5.2440     1.9610     6.1190 ca         1 7U0      -0.135000
     18 C32         -5.2510     0.5750     6.3450 ca         1 7U0      -0.057000
     19 N24         -5.7580    -0.6410     2.8910 nb         1 7U0      -0.749500
     20 C14         -5.7580    -1.9680     3.0940 ca         1 7U0       0.529400
     21 C28         -5.6080    -2.5520     4.3560 ca         1 7U0      -0.289500
     22 N13         -5.9420    -2.6560     1.8930 ns         1 7U0      -0.305900
     23 C11         -5.7450    -3.9800     1.5540 c          1 7U0       0.522600
     24 O12         -5.3070    -4.8070     2.3500 o          1 7U0      -0.577600
     25 N3          -6.5760    -3.3550    -0.7250 nb         1 7U0      -0.702000
     26 C1          -6.7500    -4.9670    -2.5180 ca         1 7U0      -0.156500
     27 O49         -6.0890    -7.2840    -2.0830 os         1 7U0      -0.345100
     28 C50         -6.3960    -7.7170    -3.4230 c3         1 7U0       0.160600
     29 C51         -6.0760    -9.2300    -3.5190 c3         1 7U0       0.146800
     30 N52         -6.3530    -9.8070    -4.8620 n8         1 7U0      -1.005200
     31 C7          -7.4270    -2.5480    -2.9370 c          1 7U0       0.522600
     32 O8          -7.7420    -2.7500    -4.1070 o          1 7U0      -0.577600
     33 N9          -7.5340    -1.3070    -2.3420 ns         1 7U0      -0.305900
     34 C10         -7.9500    -0.0690    -2.8380 ca         1 7U0       0.529400
     35 C15         -8.1290     0.2550    -4.1880 ca         1 7U0      -0.289500
     36 C16         -8.5490     1.5540    -4.5160 ca         1 7U0       0.214100
     37 C17         -8.7680     2.4750    -3.4730 ca         1 7U0      -0.128000
     38 C18         -8.5530     2.0560    -2.1380 ca         1 7U0       0.327000
     39 N19         -8.1500     0.8030    -1.8380 nb         1 7U0      -0.749500
     40 C23         -8.7670     2.9760    -1.0950 ca         1 7U0      -0.104500
     41 C22         -9.1880     4.2900    -1.3610 ca         1 7U0      -0.084500
     42 C21         -9.4000     4.6990    -2.6860 ca         1 7U0      -0.135000
     43 C20         -9.1910     3.7970    -3.7410 ca         1 7U0      -0.057000
     44 O33         -8.7500     1.9500    -5.8250 os         1 7U0      -0.350600
     45 C34         -8.5530     1.0610    -6.9410 c3         1 7U0       0.161600
     46 C35         -8.8740     1.8440    -8.2360 c3         1 7U0       0.142300
     47 N36         -8.6290     1.0880    -9.5020 n3         1 7U0      -0.705600
     48 C41         -9.4830    -0.1030    -9.7420 c5         1 7U0       0.149550
     49 C42        -10.8230     0.5280   -10.2160 c5         1 7U0      -0.094900
     50 C43        -10.3810     1.8580   -10.9080 c5         1 7U0      -0.094900
     51 C44         -8.8330     1.8630   -10.7480 c5         1 7U0       0.149550
     52 H54         -5.5620    -6.4220     0.3140 ha         1 7U0       0.161500
     53 H88         -8.6450    -7.7700     6.8100 hc         1 7U0       0.047700
     54 H85         -7.9970    -7.5320     9.6970 hc         1 7U0       0.047700
     55 H86         -6.9180    -7.9700     8.3740 hc         1 7U0       0.047700
     56 H84         -5.9560    -5.8300     8.9100 h1         1 7U0       0.046825
     57 H83         -7.5040    -5.1820     9.5000 h1         1 7U0       0.046825
     58 H90         -9.4160    -5.0160     7.9410 h1         1 7U0       0.046825
     59 H89         -9.2000    -5.4820     6.2360 h1         1 7U0       0.046825
     60 H73         -7.4110    -3.6290     6.0900 h1         1 7U0       0.046700
     61 H74         -7.5140    -3.2350     7.8050 h1         1 7U0       0.046700
     62 H72         -4.9590    -4.2730     6.4340 h1         1 7U0       0.061450
     63 H71         -5.1240    -3.7760     8.1210 h1         1 7U0       0.061450
     64 H63         -5.7100     1.9610     2.7410 ha         1 7U0       0.132500
     65 H64         -5.4050     3.5340     4.6420 ha         1 7U0       0.114000
     66 H65         -5.1110     2.6470     6.9530 ha         1 7U0       0.114500
     67 H66         -5.1230     0.2060     7.3610 ha         1 7U0       0.125000
     68 H62         -5.6300    -3.6280     4.4580 ha         1 7U0       0.163500
     69 H56         -6.2660    -2.0700     1.1360 hn         1 7U0       0.191500
     70 H53         -7.0140    -5.1710    -3.5500 ha         1 7U0       0.161500
     71 H92         -5.7890    -7.1700    -4.1560 h1         1 7U0       0.053700
     72 H91         -7.4580    -7.5530    -3.6490 h1         1 7U0       0.053700
     73 H94         -6.6710    -9.7740    -2.7710 h1         1 7U0       0.047700
     74 H93         -5.0130    -9.3840    -3.2850 h1         1 7U0       0.047700
     75 H97         -6.1440   -10.8140    -4.8450 hn         1 7U0       0.402500
     76 H95         -7.3650    -9.7790    -5.0420 hn         1 7U0       0.402500
     77 H55         -7.2760    -1.2850    -1.3650 hn         1 7U0       0.191500
     78 H57         -7.9350    -0.4830    -4.9530 ha         1 7U0       0.163500
     79 H61         -8.6050     2.6630    -0.0670 ha         1 7U0       0.132500
     80 H60         -9.3490     4.9870    -0.5420 ha         1 7U0       0.114000
     81 H59         -9.7250     5.7150    -2.8960 ha         1 7U0       0.114500
     82 H58         -9.3590     4.1310    -4.7630 ha         1 7U0       0.125000
     83 H68         -9.2170     0.1910    -6.8620 h1         1 7U0       0.061450
     84 H67         -7.5140     0.7100    -6.9810 h1         1 7U0       0.061450
     85 H70         -8.2490     2.7470    -8.2350 h1         1 7U0       0.046700
     86 H69         -9.9170     2.1810    -8.1800 h1         1 7U0       0.046700
     87 H76         -9.6090    -0.7380    -8.8550 h1         1 7U0       0.046825
     88 H75         -9.0530    -0.7310   -10.5350 h1         1 7U0       0.046825
     89 H78        -11.4880     0.7280    -9.3680 hc         1 7U0       0.047700
     90 H77        -11.3630    -0.1390   -10.8970 hc         1 7U0       0.047700
     91 H79        -10.6770     1.8980   -11.9630 hc         1 7U0       0.047700
     92 H80        -10.8340     2.7260   -10.4150 hc         1 7U0       0.047700
     93 H82         -8.3560     1.3590   -11.6010 h1         1 7U0       0.046825
     94 H81         -8.4220     2.8800   -10.6920 h1         1 7U0       0.046825
     95 O37         -5.2790    -2.2120     6.7520 os         1 7U0      -0.350600
     96 H87         -9.7910    -7.4140     8.1030 hc         1 7U0       0.047700
@<TRIPOS>BOND
     1     1    25 ar  
     2     1    26 ar  
     3     1    31 1   
     4     2     3 ar  
     5     2    23 1   
     6     2    25 ar  
     7     3     4 ar  
     8     3    52 1   
     9     4    26 ar  
    10     4    27 1   
    11     5     6 1   
    12     5     9 1   
    13     5    53 1   
    14     5    96 1   
    15     6     7 1   
    16     6    54 1   
    17     6    55 1   
    18     7     8 1   
    19     7    56 1   
    20     7    57 1   
    21     8     9 1   
    22     8    10 1   
    23     9    58 1   
    24     9    59 1   
    25    10    11 1   
    26    10    60 1   
    27    10    61 1   
    28    11    62 1   
    29    11    63 1   
    30    11    95 1   
    31    12    13 ar  
    32    12    21 ar  
    33    12    95 1   
    34    13    14 ar  
    35    13    18 ar  
    36    14    15 ar  
    37    14    19 ar  
    38    15    16 ar  
    39    15    64 1   
    40    16    17 ar  
    41    16    65 1   
    42    17    18 ar  
    43    17    66 1   
    44    18    67 1   
    45    19    20 ar  
    46    20    21 ar  
    47    20    22 1   
    48    21    68 1   
    49    22    23 1   
    50    22    69 1   
    51    23    24 2   
    52    26    70 1   
    53    27    28 1   
    54    28    29 1   
    55    28    71 1   
    56    28    72 1   
    57    29    30 1   
    58    29    73 1   
    59    29    74 1   
    60    30    75 1   
    61    30    76 1   
    62    31    32 2   
    63    31    33 1   
    64    33    34 1   
    65    33    77 1   
    66    34    35 ar  
    67    34    39 ar  
    68    35    36 ar  
    69    35    78 1   
    70    36    37 ar  
    71    36    44 1   
    72    37    38 ar  
    73    37    43 ar  
    74    38    39 ar  
    75    38    40 ar  
    76    40    41 ar  
    77    40    79 1   
    78    41    42 ar  
    79    41    80 1   
    80    42    43 ar  
    81    42    81 1   
    82    43    82 1   
    83    44    45 1   
    84    45    46 1   
    85    45    83 1   
    86    45    84 1   
    87    46    47 1   
    88    46    85 1   
    89    46    86 1   
    90    47    48 1   
    91    47    51 1   
    92    48    49 1   
    93    48    87 1   
    94    48    88 1   
    95    49    50 1   
    96    49    89 1   
    97    49    90 1   
    98    50    51 1   
    99    50    91 1   
   100    50    92 1   
   101    51    93 1   
   102    51    94 1   
@<TRIPOS>SUBSTRUCTURE
     1 7U0         1 TEMP              0 ****  ****    0 ROOT
