@<TRIPOS>MOLECULE
7U2
   55    59     1     0     0
SMALL
No Charge or Current Charge


@<TRIPOS>ATOM
      1 C4          24.3970    -3.9450   -18.8080 ca         1 7U2       0.182300
      2 C5          25.0320    -4.1630   -20.0570 ca         1 7U2      -0.290300
      3 C6          26.2720    -3.5260   -20.2910 ca         1 7U2       0.180300
      4 N1          26.8490    -2.7520   -19.3540 nb         1 7U2      -0.251000
      5 N3          25.0120    -3.1800   -17.8780 nb         1 7U2      -0.254000
      6 C2          26.1900    -2.6220   -18.1960 ca         1 7U2       0.389900
      7 CAA         23.0470    -4.6260   -18.4850 c5         1 7U2      -0.159300
      8 CAE         27.0310    -3.6680   -21.6030 c3         1 7U2      -0.155400
      9 CAJ         26.2920    -1.4450   -15.9160 c3         1 7U2       0.262800
     10 CAK         25.1740    -0.4130   -16.0410 cx         1 7U2      -0.156700
     11 CAL         25.4640     1.0710   -15.9970 cx         1 7U2      -0.127900
     12 CAM         24.7500     0.4070   -14.8430 cx         1 7U2      -0.127900
     13 CAN         24.3890    -5.0490   -21.1290 c6         1 7U2       0.224900
     14 CAP         22.4060    -5.2160   -19.7640 c6         1 7U2       0.164600
     15 CAQ         22.1070    -3.5980   -17.7500 c5         1 7U2       0.196800
     16 CAT         20.5490    -4.2980   -14.3000 ca         1 7U2      -0.119300
     17 CAU         21.2010    -4.1690   -13.0550 ca         1 7U2       0.166000
     18 CAW         20.7750    -4.9180   -11.9460 ca         1 7U2      -0.155000
     19 CAX         19.6920    -5.8050   -12.0680 ca         1 7U2      -0.087000
     20 CAY         19.0390    -5.9410   -13.3050 ca         1 7U2      -0.131000
     21 CAZ         19.4650    -5.1920   -14.4160 ca         1 7U2      -0.070000
     22 CBA         22.9310    -4.9840   -16.0750 c5         1 7U2       0.170800
     23 CBB         23.3470    -5.7030   -17.3790 c5         1 7U2      -0.063400
     24 FAV         22.2490    -3.3260   -12.9120 f          1 7U2      -0.187000
     25 NAI         26.8120    -1.8330   -17.2380 nu         1 7U2      -0.913100
     26 NAR         21.6870    -4.3260   -16.5270 n3         1 7U2      -0.742600
     27 OAO         23.3940    -5.9100   -20.5430 os         1 7U2      -0.440000
     28 H1          27.8940    -2.9910   -21.6520 hc         1 7U2       0.056033
     29 H2          27.4090    -4.6890   -21.7300 hc         1 7U2       0.056033
     30 H3          26.3870    -3.4360   -22.4590 hc         1 7U2       0.056033
     31 H4          25.9150    -2.3290   -15.3810 h1         1 7U2       0.061200
     32 H5          27.1030    -1.0200   -15.3070 h1         1 7U2       0.061200
     33 H6          24.3730    -0.7400   -16.6990 hc         1 7U2       0.088700
     34 H7          26.4930     1.3870   -15.8410 hc         1 7U2       0.071200
     35 H8          24.8830     1.7190   -16.6490 hc         1 7U2       0.071200
     36 H9          25.3000     0.2800   -13.9130 hc         1 7U2       0.071200
     37 H10         23.6890     0.6100   -14.7190 hc         1 7U2       0.071200
     38 H11         25.1480    -5.6770   -21.6170 h1         1 7U2       0.049700
     39 H12         23.9170    -4.4210   -21.8980 h1         1 7U2       0.049700
     40 H13         21.9700    -4.4140   -20.3780 h1         1 7U2       0.053200
     41 H14         21.5970    -5.9110   -19.5000 h1         1 7U2       0.053200
     42 H15         22.6160    -2.6600   -17.4890 h1         1 7U2       0.045200
     43 H16         21.2410    -3.3210   -18.3670 h1         1 7U2       0.045200
     44 H17         21.6480    -2.6700   -15.2000 h1         1 7U2       0.048700
     45 H18         20.1070    -3.0340   -15.9670 h1         1 7U2       0.048700
     46 H19         21.2860    -4.8090   -10.9920 ha         1 7U2       0.129000
     47 H20         19.3610    -6.3850   -11.2090 ha         1 7U2       0.115000
     48 H21         18.2020    -6.6290   -13.4030 ha         1 7U2       0.117000
     49 H22         18.9580    -5.3080   -15.3720 ha         1 7U2       0.133000
     50 H23         22.7610    -5.6950   -15.2540 h1         1 7U2       0.047200
     51 H24         23.6850    -4.2550   -15.7450 h1         1 7U2       0.047200
     52 H25         22.7350    -6.6010   -17.5210 hc         1 7U2       0.059200
     53 H26         24.3910    -6.0360   -17.3590 hc         1 7U2       0.059200
     54 H27         27.6930    -1.4120   -17.5330 hn         1 7U2       0.500000
     55 CAS         20.9970    -3.4960   -15.5170 c3         1 7U2       0.229100
@<TRIPOS>BOND
     1     1     2 ar  
     2     1     5 ar  
     3     1     7 1   
     4     2     3 ar  
     5     2    13 1   
     6     3     4 ar  
     7     3     8 1   
     8     4     6 ar  
     9     5     6 ar  
    10     6    25 1   
    11     7    14 1   
    12     7    15 1   
    13     7    23 1   
    14     8    28 1   
    15     8    29 1   
    16     8    30 1   
    17     9    10 1   
    18     9    25 1   
    19     9    31 1   
    20     9    32 1   
    21    10    11 1   
    22    10    12 1   
    23    10    33 1   
    24    11    12 1   
    25    11    34 1   
    26    11    35 1   
    27    12    36 1   
    28    12    37 1   
    29    13    27 1   
    30    13    38 1   
    31    13    39 1   
    32    14    27 1   
    33    14    40 1   
    34    14    41 1   
    35    15    26 1   
    36    15    42 1   
    37    15    43 1   
    38    16    17 ar  
    39    16    21 ar  
    40    16    55 1   
    41    17    18 ar  
    42    17    24 1   
    43    18    19 ar  
    44    18    46 1   
    45    19    20 ar  
    46    19    47 1   
    47    20    21 ar  
    48    20    48 1   
    49    21    49 1   
    50    22    23 1   
    51    22    26 1   
    52    22    50 1   
    53    22    51 1   
    54    23    52 1   
    55    23    53 1   
    56    25    54 1   
    57    26    55 1   
    58    44    55 1   
    59    45    55 1   
@<TRIPOS>SUBSTRUCTURE
     1 7U2         1 TEMP              0 ****  ****    0 ROOT
