@<TRIPOS>MOLECULE
7U2
   55    59     1     0     0
SMALL
bcc


@<TRIPOS>ATOM
      1 C4          24.2620    -4.0280   -18.8540 ca         1 7U2       0.510600
      2 C5          25.0300    -4.1850   -19.9990 ca         1 7U2      -0.420900
      3 C6          26.2730    -3.5420   -20.0000 ca         1 7U2       0.508600
      4 N1          26.7070    -2.8520   -18.9580 nb         1 7U2      -0.777000
      5 N3          24.6910    -3.3320   -17.8090 nb         1 7U2      -0.780000
      6 C2          25.8980    -2.7820   -17.8930 ca         1 7U2       0.915900
      7 CAA         22.8990    -4.6720   -18.7660 c5         1 7U2      -0.159300
      8 CAE         27.1650    -3.6100   -21.2000 c3         1 7U2      -0.155400
      9 CAJ         25.5540    -1.7680   -15.6740 c3         1 7U2       0.262800
     10 CAK         24.5800    -0.6450   -15.9240 cx         1 7U2      -0.156700
     11 CAL         25.0540     0.7730   -15.8510 cx         1 7U2      -0.127900
     12 CAM         24.1530     0.2250   -14.7840 cx         1 7U2      -0.127900
     13 CAN         24.5270    -4.9580   -21.1860 c6         1 7U2       0.201700
     14 CAP         22.4220    -4.9650   -20.1830 c6         1 7U2       0.141400
     15 CAQ         21.8860    -3.8060   -17.9990 c5         1 7U2       0.196800
     16 CAT         21.2350    -4.0420   -14.3000 ca         1 7U2      -0.119300
     17 CAU         21.7460    -3.6370   -13.0760 ca         1 7U2       0.130900
     18 CAW         21.3350    -4.1730   -11.8700 ca         1 7U2      -0.173000
     19 CAX         20.3630    -5.1620   -11.8750 ca         1 7U2      -0.105000
     20 CAY         19.8230    -5.5940   -13.0790 ca         1 7U2      -0.149000
     21 CAZ         20.2590    -5.0380   -14.2720 ca         1 7U2      -0.088000
     22 CBA         22.7540    -5.4240   -16.4880 c5         1 7U2       0.170800
     23 CBB         22.9860    -5.9430   -17.8950 c5         1 7U2      -0.063400
     24 FAV         22.6900    -2.6750   -13.0460 f          1 7U2      -0.151900
     25 NAI         26.3650    -2.1060   -16.8210 nu         1 7U2      -0.857900
     26 NAR         21.7460    -4.3930   -16.6680 n3         1 7U2      -0.742600
     27 OAO         23.3800    -5.7130   -20.8890 os         1 7U2      -0.393600
     28 H1          28.0590    -3.0100   -21.0520 hc         1 7U2       0.056033
     29 H2          27.4700    -4.6400   -21.4000 hc         1 7U2       0.056033
     30 H3          26.6500    -3.2550   -22.0940 hc         1 7U2       0.056033
     31 H4          25.0230    -2.6600   -15.3370 h1         1 7U2       0.061200
     32 H5          26.2360    -1.4900   -14.8680 h1         1 7U2       0.061200
     33 H6          23.8220    -0.8610   -16.6710 hc         1 7U2       0.088700
     34 H7          26.0930     0.9470   -15.5970 hc         1 7U2       0.071200
     35 H8          24.6430     1.4900   -16.5510 hc         1 7U2       0.071200
     36 H9          24.5850     0.0300   -13.8090 hc         1 7U2       0.071200
     37 H10         23.1250     0.5630   -14.7530 hc         1 7U2       0.071200
     38 H11         25.2850    -5.6610   -21.5410 h1         1 7U2       0.049700
     39 H12         24.3260    -4.2650   -22.0180 h1         1 7U2       0.049700
     40 H13         22.1920    -4.0240   -20.7070 h1         1 7U2       0.053200
     41 H14         21.5030    -5.5550   -20.1520 h1         1 7U2       0.053200
     42 H15         22.2170    -2.7640   -17.9580 h1         1 7U2       0.045200
     43 H16         20.9190    -3.8100   -18.5170 h1         1 7U2       0.045200
     44 H17         22.6320    -2.8970   -15.4730 h1         1 7U2       0.048700
     45 H18         20.9450    -2.6570   -15.8800 h1         1 7U2       0.048700
     46 H19         21.7710    -3.8210   -10.9440 ha         1 7U2       0.147000
     47 H20         20.0310    -5.5910   -10.9380 ha         1 7U2       0.133000
     48 H21         19.0660    -6.3670   -13.0910 ha         1 7U2       0.135000
     49 H22         19.8490    -5.3820   -15.2120 ha         1 7U2       0.151000
     50 H23         22.4000    -6.2110   -15.8180 h1         1 7U2       0.047200
     51 H24         23.6850    -5.0270   -16.0600 h1         1 7U2       0.047200
     52 H25         22.1850    -6.6320   -18.1770 hc         1 7U2       0.059200
     53 H26         23.9300    -6.4790   -17.9960 hc         1 7U2       0.059200
     54 H27         27.2080    -1.5760   -16.9710 hn         1 7U2       0.444800
     55 CAS         21.6750    -3.4230   -15.6030 c3         1 7U2       0.229100
@<TRIPOS>BOND
     1     1     2 ar  
     2     1     5 ar  
     3     1     7 1   
     4     2     3 ar  
     5     2    13 1   
     6     3     4 ar  
     7     3     8 1   
     8     4     6 ar  
     9     5     6 ar  
    10     6    25 1   
    11     7    14 1   
    12     7    15 1   
    13     7    23 1   
    14     8    28 1   
    15     8    29 1   
    16     8    30 1   
    17     9    10 1   
    18     9    25 1   
    19     9    31 1   
    20     9    32 1   
    21    10    11 1   
    22    10    12 1   
    23    10    33 1   
    24    11    12 1   
    25    11    34 1   
    26    11    35 1   
    27    12    36 1   
    28    12    37 1   
    29    13    27 1   
    30    13    38 1   
    31    13    39 1   
    32    14    27 1   
    33    14    40 1   
    34    14    41 1   
    35    15    26 1   
    36    15    42 1   
    37    15    43 1   
    38    16    17 ar  
    39    16    21 ar  
    40    16    55 1   
    41    17    18 ar  
    42    17    24 1   
    43    18    19 ar  
    44    18    46 1   
    45    19    20 ar  
    46    19    47 1   
    47    20    21 ar  
    48    20    48 1   
    49    21    49 1   
    50    22    23 1   
    51    22    26 1   
    52    22    50 1   
    53    22    51 1   
    54    23    52 1   
    55    23    53 1   
    56    25    54 1   
    57    26    55 1   
    58    44    55 1   
    59    45    55 1   
@<TRIPOS>SUBSTRUCTURE
     1 7U2         1 TEMP              0 ****  ****    0 ROOT
