@<TRIPOS>MOLECULE
7U3
   33    35     1     0     0
SMALL
abcg2


@<TRIPOS>ATOM
      1 CAG         -4.8790    -0.5790     0.5620 c5         1 7U3      -0.107400
      2 CAF         -5.7900     0.3190    -0.3110 c5         1 7U3       0.135800
      3 NAK         -5.0510     1.5440    -0.6100 n7         1 7U3      -0.826400
      4 CAH         -3.6530     1.1430    -0.5890 c5         1 7U3       0.142800
      5 CAS         -3.5200     0.1450     0.5710 c5         1 7U3      -0.111700
      6 CAI         -2.3650    -0.8180     0.4420 c3         1 7U3       0.181600
      7 OAM         -1.1610    -0.0490     0.3980 os         1 7U3      -0.426600
      8 CAO         -0.0100    -0.6820     0.2110 cc         1 7U3       0.610200
      9 NAJ          0.0290    -1.9580     0.1220 nd         1 7U3      -0.538300
     10 NAL          1.2290    -2.5410    -0.0700 ns         1 7U3      -0.227900
     11 CAP          2.4400    -1.9460    -0.1860 c          1 7U3       0.550600
     12 OAA          3.4670    -2.5880    -0.3600 o          1 7U3      -0.544000
     13 CAR          2.3900    -0.4810    -0.0840 ca         1 7U3      -0.107600
     14 CAQ          1.1640     0.1580     0.1170 ca         1 7U3      -0.144900
     15 CAD          1.1190     1.5530     0.2130 ca         1 7U3      -0.050000
     16 CAC          2.2800     2.2880     0.1080 ca         1 7U3      -0.138000
     17 CAN          3.4850     1.6240    -0.0930 ca         1 7U3       0.180000
     18 FAB          4.6010     2.3510    -0.1970 f          1 7U3      -0.167000
     19 CAE          3.5670     0.2560    -0.1910 ca         1 7U3      -0.103000
     20 H1          -5.2680    -0.7020     1.5730 hc         1 7U3       0.050700
     21 H2          -4.7930    -1.5790     0.1310 hc         1 7U3       0.050700
     22 H3          -6.0290    -0.1940    -1.2460 h1         1 7U3       0.054700
     23 H4          -6.7370     0.5580     0.1720 h1         1 7U3       0.054700
     24 H5          -5.2020     2.2040     0.1440 hn         1 7U3       0.399000
     25 H7          -3.4050     0.6490    -1.5360 h1         1 7U3       0.060700
     26 H8          -3.0010     2.0110    -0.4940 h1         1 7U3       0.060700
     27 H9          -3.4170     0.7080     1.5040 hc         1 7U3       0.060700
     28 H10         -2.3300    -1.5150     1.2850 h1         1 7U3       0.053200
     29 H11         -2.4590    -1.4110    -0.4740 h1         1 7U3       0.053200
     30 H12          1.1880    -3.5480    -0.1290 hn         1 7U3       0.355500
     31 H13          0.1800     2.0640     0.3700 ha         1 7U3       0.139000
     32 H14          2.2590     3.3670     0.1780 ha         1 7U3       0.139000
     33 H15          4.5180    -0.2350    -0.3490 ha         1 7U3       0.161000
@<TRIPOS>BOND
     1     1     2 1   
     2     1     5 1   
     3     1    20 1   
     4     1    21 1   
     5     2     3 1   
     6     2    22 1   
     7     2    23 1   
     8     3     4 1   
     9     3    24 1   
    10     4     5 1   
    11     4    25 1   
    12     4    26 1   
    13     5     6 1   
    14     5    27 1   
    15     6     7 1   
    16     6    28 1   
    17     6    29 1   
    18     7     8 1   
    19     8     9 2   
    20     8    14 1   
    21     9    10 1   
    22    10    11 1   
    23    10    30 1   
    24    11    12 2   
    25    11    13 1   
    26    13    14 ar  
    27    13    19 ar  
    28    14    15 ar  
    29    15    16 ar  
    30    15    31 1   
    31    16    17 ar  
    32    16    32 1   
    33    17    18 1   
    34    17    19 ar  
    35    19    33 1   
@<TRIPOS>SUBSTRUCTURE
     1 7U3         1 TEMP              0 ****  ****    0 ROOT
