@<TRIPOS>MOLECULE
7U3
   33    35     1     0     0
SMALL
No Charge or Current Charge


@<TRIPOS>ATOM
      1 CAG         -4.9830    -0.6000     0.4280 c5         1 7U3      -0.107400
      2 CAF         -5.9330     0.5490    -0.0270 c5         1 7U3       0.135800
      3 NAK         -5.0520     1.6570    -0.4850 n7         1 7U3      -0.826400
      4 CAH         -3.7600     1.0090    -0.7980 c5         1 7U3       0.142800
      5 CAS         -3.5820     0.0720     0.4160 c5         1 7U3      -0.111700
      6 CAI         -2.3980    -0.9140     0.3120 c3         1 7U3       0.181600
      7 OAM         -1.1880    -0.1360     0.2550 os         1 7U3      -0.426600
      8 CAO          0.0440    -0.7360     0.1560 cc         1 7U3       0.610200
      9 NAJ          0.0970    -2.0710     0.1200 nd         1 7U3      -0.538300
     10 NAL          1.3660    -2.6270     0.0190 ns         1 7U3      -0.227900
     11 CAP          2.5930    -1.9780    -0.0500 c          1 7U3       0.550600
     12 OAA          3.6480    -2.5910    -0.1380 o          1 7U3      -0.544000
     13 CAR          2.5050    -0.4710    -0.0080 ca         1 7U3      -0.107600
     14 CAQ          1.2280     0.1350     0.0950 ca         1 7U3      -0.144900
     15 CAD          1.1240     1.5430     0.1360 ca         1 7U3      -0.050000
     16 CAC          2.2820     2.3380     0.0740 ca         1 7U3      -0.138000
     17 CAN          3.5440     1.7340    -0.0280 ca         1 7U3       0.180000
     18 FAB          4.6530     2.5020    -0.0870 f          1 7U3      -0.167000
     19 CAE          3.6610     0.3370    -0.0690 ca         1 7U3      -0.103000
     20 H1          -5.2490    -0.9940     1.4160 hc         1 7U3       0.050700
     21 H2          -5.0320    -1.4390    -0.2770 hc         1 7U3       0.050700
     22 H3          -6.5800     0.2020    -0.8450 h1         1 7U3       0.054700
     23 H4          -6.5890     0.8850     0.7890 h1         1 7U3       0.054700
     24 H5          -4.8940     2.2840     0.3140 hn         1 7U3       0.399000
     25 H7          -3.8150     0.4440    -1.7400 h1         1 7U3       0.060700
     26 H8          -2.9440     1.7410    -0.8860 h1         1 7U3       0.060700
     27 H9          -3.4280     0.6540     1.3330 hc         1 7U3       0.060700
     28 H10         -2.3990    -1.5750     1.1890 h1         1 7U3       0.053200
     29 H11         -2.5120    -1.5300    -0.5910 h1         1 7U3       0.053200
     30 H12          1.4390    -3.6420    -0.0100 hn         1 7U3       0.355500
     31 H13          0.1510     2.0260     0.2150 ha         1 7U3       0.139000
     32 H14          2.2030     3.4220     0.1050 ha         1 7U3       0.139000
     33 H15          4.6470    -0.1140    -0.1490 ha         1 7U3       0.161000
@<TRIPOS>BOND
     1     1     2 1   
     2     1     5 1   
     3     1    20 1   
     4     1    21 1   
     5     2     3 1   
     6     2    22 1   
     7     2    23 1   
     8     3     4 1   
     9     3    24 1   
    10     4     5 1   
    11     4    25 1   
    12     4    26 1   
    13     5     6 1   
    14     5    27 1   
    15     6     7 1   
    16     6    28 1   
    17     6    29 1   
    18     7     8 1   
    19     8     9 2   
    20     8    14 1   
    21     9    10 1   
    22    10    11 1   
    23    10    30 1   
    24    11    12 2   
    25    11    13 1   
    26    13    14 ar  
    27    13    19 ar  
    28    14    15 ar  
    29    15    16 ar  
    30    15    31 1   
    31    16    17 ar  
    32    16    32 1   
    33    17    18 1   
    34    17    19 ar  
    35    19    33 1   
@<TRIPOS>SUBSTRUCTURE
     1 7U3         1 TEMP              0 ****  ****    0 ROOT
