@<TRIPOS>MOLECULE
7U5
   68    72     1     0     0
SMALL
No Charge or Current Charge


@<TRIPOS>ATOM
      1 C10        123.6030   106.6620   128.4640 ca         1 7U5      -0.058000
      2 C15        119.4030   106.3090   132.8760 c3         1 7U5      -0.147400
      3 C17        121.2700   104.1120   133.9000 c3         1 7U5      -0.145400
      4 C20        124.1460   104.9650   130.1130 ca         1 7U5      -0.052000
      5 C22        127.2310   102.2440   127.5620 c3         1 7U5      -0.044100
      6 C24        124.7520   101.7150   127.8130 ca         1 7U5      -0.105000
      7 C26        125.5520   102.5580   125.6770 ca         1 7U5      -0.105000
      8 C28        123.1810   102.0920   125.9890 ca         1 7U5       0.026000
      9 C02        129.0360   103.7750   128.5900 c          1 7U5       0.589100
     10 C04        130.2710   104.6750   130.6010 c3         1 7U5       0.099000
     11 C05        130.5050   103.4450   131.4950 c3         1 7U5      -0.116100
     12 C06        127.6520   103.7020   127.8800 c3         1 7U5       0.023700
     13 C08        125.7220   105.3320   128.1200 c          1 7U5       0.616700
     14 C09        124.4790   105.6560   128.9220 ca         1 7U5      -0.132600
     15 C11        122.4330   106.9740   129.1750 ca         1 7U5      -0.078000
     16 C12        122.0990   106.2940   130.3570 ca         1 7U5       0.242000
     17 C14        120.6870   105.9270   132.1520 ca         1 7U5       0.328300
     18 C16        121.5590   104.9010   132.6300 ca         1 7U5       0.323300
     19 C19        122.9750   105.2650   130.8360 ca         1 7U5       0.214000
     20 C23        125.8160   102.1550   127.0000 ca         1 7U5      -0.077300
     21 C25        123.4400   101.6850   127.3100 ca         1 7U5      -0.079000
     22 C27        124.2400   102.5260   125.1730 ca         1 7U5      -0.079000
     23 C29        121.8400   102.0710   125.4800 cg         1 7U5      -0.084000
     24 C30        120.6960   102.0630   125.0560 ch         1 7U5      -0.113000
     25 C31        119.3560   102.0650   124.5740 ca         1 7U5       0.044000
     26 C32        119.0910   102.3650   123.2280 ca         1 7U5      -0.083000
     27 C33        117.7690   102.3670   122.7540 ca         1 7U5      -0.076000
     28 C34        118.2920   101.7680   125.4440 ca         1 7U5      -0.055000
     29 C35        116.9600   101.7650   124.9890 ca         1 7U5       0.220000
     30 C36        116.6920   102.0720   123.6100 ca         1 7U5       0.226000
     31 C38        114.4310   101.7900   123.9980 ca         1 7U5       0.297900
     32 C39        114.6950   101.4870   125.3560 ca         1 7U5       0.295900
     33 N07        126.5730   104.3820   128.6490 ns         1 7U5      -0.500900
     34 N13        120.9570   106.6230   131.0170 nb         1 7U5      -0.637000
     35 N18        122.7020   104.5710   131.9740 nb         1 7U5      -0.640000
     36 N37        115.4240   102.0840   123.1160 nb         1 7U5      -0.623000
     37 N40        115.9570   101.4730   125.8610 nb         1 7U5      -0.622000
     38 O01        130.0240   103.1940   128.1590 o          1 7U5      -0.585100
     39 O21        125.9630   105.8750   127.0510 o          1 7U5      -0.581100
     40 H10        123.8250   107.2100   127.5490 ha         1 7U5       0.144000
     41 H153       118.8670   107.1150   132.3610 hc         1 7U5       0.058700
     42 H152       118.7240   105.4510   132.9440 hc         1 7U5       0.058700
     43 H151       119.6170   106.6530   133.8940 hc         1 7U5       0.058700
     44 H173       122.0500   103.3690   134.1060 hc         1 7U5       0.056033
     45 H171       121.2110   104.7780   134.7690 hc         1 7U5       0.056033
     46 H172       120.3170   103.5760   133.8190 hc         1 7U5       0.056033
     47 H20        124.7840   104.1760   130.4970 ha         1 7U5       0.124000
     48 H222       127.9450   101.8090   126.8510 hc         1 7U5       0.056200
     49 H221       127.3110   101.6440   128.4770 hc         1 7U5       0.056200
     50 H24        124.9380   101.4080   128.8390 ha         1 7U5       0.114000
     51 H26        126.3630   102.9080   125.0410 ha         1 7U5       0.114000
     52 H041       130.1350   105.5640   131.2330 h1         1 7U5       0.056700
     53 H042       131.1510   104.8440   129.9670 h1         1 7U5       0.056700
     54 H051       131.3850   103.6000   132.1300 hc         1 7U5       0.043033
     55 H053       129.6390   103.2700   132.1450 hc         1 7U5       0.043033
     56 H052       130.6730   102.5480   130.8890 hc         1 7U5       0.043033
     57 H06        127.7920   104.2300   126.9290 h1         1 7U5       0.119700
     58 H11        121.7740   107.7540   128.8040 ha         1 7U5       0.137000
     59 H25        122.6260   101.3490   127.9490 ha         1 7U5       0.123500
     60 H27        124.0480   102.8450   124.1510 ha         1 7U5       0.123500
     61 H32        119.9080   102.5960   122.5480 ha         1 7U5       0.127000
     62 H33        117.5740   102.6010   121.7110 ha         1 7U5       0.136000
     63 H34        118.4960   101.5370   126.4850 ha         1 7U5       0.139000
     64 H38        113.4120   101.7960   123.6150 h4         1 7U5       0.031100
     65 H39        113.8840   101.2550   126.0450 h4         1 7U5       0.030100
     66 HN03       128.2320   104.9920   130.0220 hn         1 7U5       0.306500
     67 HN07       126.2920   103.9690   129.5290 hn         1 7U5       0.309500
     68 N03        129.0870   104.5190   129.7530 ns         1 7U5      -0.506900
@<TRIPOS>BOND
     1     1    14 ar  
     2     1    15 ar  
     3     1    40 1   
     4     2    17 1   
     5     2    41 1   
     6     2    42 1   
     7     2    43 1   
     8     3    18 1   
     9     3    44 1   
    10     3    45 1   
    11     3    46 1   
    12     4    14 ar  
    13     4    19 ar  
    14     4    47 1   
    15     5    12 1   
    16     5    20 1   
    17     5    48 1   
    18     5    49 1   
    19     6    20 ar  
    20     6    21 ar  
    21     6    50 1   
    22     7    20 ar  
    23     7    22 ar  
    24     7    51 1   
    25     8    21 ar  
    26     8    22 ar  
    27     8    23 1   
    28     9    12 1   
    29     9    38 2   
    30     9    68 1   
    31    10    11 1   
    32    10    52 1   
    33    10    53 1   
    34    10    68 1   
    35    11    54 1   
    36    11    55 1   
    37    11    56 1   
    38    12    33 1   
    39    12    57 1   
    40    13    14 1   
    41    13    33 1   
    42    13    39 2   
    43    15    16 ar  
    44    15    58 1   
    45    16    19 ar  
    46    16    34 ar  
    47    17    18 ar  
    48    17    34 ar  
    49    18    35 ar  
    50    19    35 ar  
    51    21    59 1   
    52    22    60 1   
    53    23    24 3   
    54    24    25 1   
    55    25    26 ar  
    56    25    28 ar  
    57    26    27 ar  
    58    26    61 1   
    59    27    30 ar  
    60    27    62 1   
    61    28    29 ar  
    62    28    63 1   
    63    29    30 ar  
    64    29    37 ar  
    65    30    36 ar  
    66    31    32 ar  
    67    31    36 ar  
    68    31    64 1   
    69    32    37 ar  
    70    32    65 1   
    71    33    67 1   
    72    66    68 1   
@<TRIPOS>SUBSTRUCTURE
     1 7U5         1 TEMP              0 ****  ****    0 ROOT
