@<TRIPOS>MOLECULE
7U5
   68    72     1     0     0
SMALL
abcg2


@<TRIPOS>ATOM
      1 C10        123.7750   107.2310   129.0220 ca         1 7U5      -0.058000
      2 C15        119.4070   106.8680   133.1870 c3         1 7U5      -0.147400
      3 C17        120.6620   104.2300   133.7000 c3         1 7U5      -0.145400
      4 C20        123.8740   105.1540   130.2480 ca         1 7U5      -0.052000
      5 C22        127.0460   102.4370   127.9670 c3         1 7U5      -0.044100
      6 C24        124.5650   102.0290   128.1620 ca         1 7U5      -0.105000
      7 C26        125.5180   102.2720   125.9710 ca         1 7U5      -0.105000
      8 C28        123.1280   101.9870   126.2190 ca         1 7U5       0.026000
      9 C02        128.7930   104.2260   128.5480 c          1 7U5       0.589100
     10 C04        130.4230   103.9480   130.3740 c3         1 7U5       0.099000
     11 C05        131.4090   102.8430   130.0070 c3         1 7U5      -0.116100
     12 C06        127.3650   103.9480   128.0670 c3         1 7U5       0.023700
     13 C08        125.5000   105.5500   128.3630 c          1 7U5       0.616700
     14 C09        124.3730   105.9710   129.2590 ca         1 7U5      -0.132600
     15 C11        122.7140   107.6570   129.7750 ca         1 7U5      -0.078000
     16 C12        122.1750   106.8260   130.7770 ca         1 7U5       0.242000
     17 C14        120.6180   106.4280   132.4130 ca         1 7U5       0.328300
     18 C16        121.2310   105.1380   132.6640 ca         1 7U5       0.323300
     19 C19        122.7630   105.5630   131.0130 ca         1 7U5       0.214000
     20 C23        125.6910   102.2170   127.3560 ca         1 7U5      -0.077300
     21 C25        123.2990   101.9250   127.6100 ca         1 7U5      -0.079000
     22 C27        124.2600   102.1580   125.4050 ca         1 7U5      -0.079000
     23 C29        121.8390   101.8800   125.6440 cg         1 7U5      -0.084000
     24 C30        120.7320   101.8200   125.1600 ch         1 7U5      -0.113000
     25 C31        119.4390   101.7780   124.5760 ca         1 7U5       0.044000
     26 C32        119.2970   101.9690   123.1720 ca         1 7U5      -0.083000
     27 C33        118.0660   101.9380   122.5800 ca         1 7U5      -0.076000
     28 C34        118.3110   101.5560   125.3500 ca         1 7U5      -0.055000
     29 C35        117.0340   101.5220   124.7580 ca         1 7U5       0.220000
     30 C36        116.9040   101.7140   123.3540 ca         1 7U5       0.226000
     31 C38        114.6490   101.4760   123.5330 ca         1 7U5       0.297900
     32 C39        114.7780   101.2830   124.9280 ca         1 7U5       0.295900
     33 N07        126.3750   104.6510   128.8790 ns         1 7U5      -0.500900
     34 N13        121.0890   107.2350   131.4960 nb         1 7U5      -0.637000
     35 N18        122.2640   104.7320   131.9700 nb         1 7U5      -0.640000
     36 N37        115.6840   101.6870   122.7590 nb         1 7U5      -0.623000
     37 N40        115.9390   101.3060   125.5330 nb         1 7U5      -0.622000
     38 O01        129.5690   104.8700   127.8410 o          1 7U5      -0.585100
     39 O21        125.5890   105.9930   127.2170 o          1 7U5      -0.581100
     40 H10        124.1880   107.8540   128.2440 ha         1 7U5       0.144000
     41 H153       119.0710   107.8540   132.8460 hc         1 7U5       0.058700
     42 H152       118.5860   106.1410   133.0570 hc         1 7U5       0.058700
     43 H151       119.6400   106.9110   134.2610 hc         1 7U5       0.058700
     44 H173       121.2210   103.3090   133.7160 hc         1 7U5       0.056033
     45 H171       120.6970   104.6860   134.6820 hc         1 7U5       0.056033
     46 H172       119.6190   104.0120   133.5030 hc         1 7U5       0.056033
     47 H20        124.2770   104.1710   130.4460 ha         1 7U5       0.124000
     48 H222       127.8270   101.9720   127.3620 hc         1 7U5       0.056200
     49 H221       127.0810   101.9870   128.9600 hc         1 7U5       0.056200
     50 H24        124.6810   101.9780   129.2360 ha         1 7U5       0.114000
     51 H26        126.3810   102.4130   125.3300 ha         1 7U5       0.114000
     52 H041       130.2810   103.9850   131.4540 h1         1 7U5       0.056700
     53 H042       130.7950   104.9200   130.0500 h1         1 7U5       0.056700
     54 H051       132.3710   103.0310   130.4840 hc         1 7U5       0.043033
     55 H053       131.0440   101.8660   130.3440 hc         1 7U5       0.043033
     56 H052       131.5570   102.8050   128.9220 hc         1 7U5       0.043033
     57 H06        127.3080   104.3860   127.0770 h1         1 7U5       0.119700
     58 H11        122.2820   108.6220   129.6300 ha         1 7U5       0.137000
     59 H25        122.4380   101.7740   128.2480 ha         1 7U5       0.123500
     60 H27        124.1410   102.2010   124.3270 ha         1 7U5       0.123500
     61 H32        120.1870   102.1380   122.5800 ha         1 7U5       0.127000
     62 H33        117.9530   102.0820   121.5160 ha         1 7U5       0.136000
     63 H34        118.3920   101.4080   126.4150 ha         1 7U5       0.139000
     64 H38        113.6660   101.4510   123.0740 h4         1 7U5       0.031100
     65 H39        113.8910   101.1100   125.5290 h4         1 7U5       0.030100
     66 HN03       128.4610   103.1760   130.2610 hn         1 7U5       0.306500
     67 HN07       126.2340   104.3330   129.8230 hn         1 7U5       0.309500
     68 N03        129.1150   103.7600   129.7680 ns         1 7U5      -0.506900
@<TRIPOS>BOND
     1     1    14 ar  
     2     1    15 ar  
     3     1    40 1   
     4     2    17 1   
     5     2    41 1   
     6     2    42 1   
     7     2    43 1   
     8     3    18 1   
     9     3    44 1   
    10     3    45 1   
    11     3    46 1   
    12     4    14 ar  
    13     4    19 ar  
    14     4    47 1   
    15     5    12 1   
    16     5    20 1   
    17     5    48 1   
    18     5    49 1   
    19     6    20 ar  
    20     6    21 ar  
    21     6    50 1   
    22     7    20 ar  
    23     7    22 ar  
    24     7    51 1   
    25     8    21 ar  
    26     8    22 ar  
    27     8    23 1   
    28     9    12 1   
    29     9    38 2   
    30     9    68 1   
    31    10    11 1   
    32    10    52 1   
    33    10    53 1   
    34    10    68 1   
    35    11    54 1   
    36    11    55 1   
    37    11    56 1   
    38    12    33 1   
    39    12    57 1   
    40    13    14 1   
    41    13    33 1   
    42    13    39 2   
    43    15    16 ar  
    44    15    58 1   
    45    16    19 ar  
    46    16    34 ar  
    47    17    18 ar  
    48    17    34 ar  
    49    18    35 ar  
    50    19    35 ar  
    51    21    59 1   
    52    22    60 1   
    53    23    24 3   
    54    24    25 1   
    55    25    26 ar  
    56    25    28 ar  
    57    26    27 ar  
    58    26    61 1   
    59    27    30 ar  
    60    27    62 1   
    61    28    29 ar  
    62    28    63 1   
    63    29    30 ar  
    64    29    37 ar  
    65    30    36 ar  
    66    31    32 ar  
    67    31    36 ar  
    68    31    64 1   
    69    32    37 ar  
    70    32    65 1   
    71    33    67 1   
    72    66    68 1   
@<TRIPOS>SUBSTRUCTURE
     1 7U5         1 TEMP              0 ****  ****    0 ROOT
