@<TRIPOS>MOLECULE
7U6
   35    37     1     0     0
SMALL
bcc


@<TRIPOS>ATOM
      1 CAI          4.0000    -0.5620     0.3280 c6         1 7U6       0.050000
      2 CAG          4.6680     0.3110    -0.7330 c6         1 7U6       0.130300
      3 NAL          4.3960     1.7280    -0.5760 n7         1 7U6      -0.790200
      4 CAH          2.9710     1.9780    -0.4500 c6         1 7U6       0.130300
      5 CAJ          2.2880     1.1230     0.6150 c6         1 7U6       0.050000
      6 NAT          2.5690    -0.2860     0.3610 n          1 7U6      -0.443800
      7 CAO          1.6980    -1.2690     0.1020 c          1 7U6       0.624800
      8 OAC          2.0350    -2.4310    -0.1140 o          1 7U6      -0.631100
      9 CAQ          0.2260    -1.0050     0.0810 cc         1 7U6       0.367800
     10 NAM         -0.5880    -2.0870    -0.0080 na         1 7U6      -0.225300
     11 NAK         -0.4380     0.1200     0.1100 nd         1 7U6      -0.546100
     12 CAS         -1.7570    -0.2320     0.0480 ca         1 7U6       0.102400
     13 CAR         -1.8700    -1.6310    -0.0330 ca         1 7U6      -0.083200
     14 CAF         -3.0950    -2.2860    -0.1210 ca         1 7U6      -0.109000
     15 CAD         -4.2200    -1.4870    -0.1360 ca         1 7U6      -0.118000
     16 CAE         -4.1290    -0.0870    -0.0690 ca         1 7U6      -0.127000
     17 CAP         -2.9110     0.5660     0.0220 ca         1 7U6      -0.088600
     18 CAN         -2.8190     2.0500     0.1560 c          1 7U6       0.690700
     19 OAB         -2.0010     2.5750     0.8960 o          1 7U6      -0.580100
     20 NAA         -3.7030     2.7460    -0.5760 nt         1 7U6      -0.678000
     21 H1           4.1750    -1.6150     0.1290 h1         1 7U6       0.073450
     22 H2           4.4150    -0.3290     1.3150 h1         1 7U6       0.073450
     23 H3           5.7470     0.1460    -0.7050 h1         1 7U6       0.064200
     24 H4           4.3190    -0.0050    -1.7210 h1         1 7U6       0.064200
     25 H5           4.8680     2.0670     0.2550 hn         1 7U6       0.348800
     26 H7           2.8090     3.0320    -0.2200 h1         1 7U6       0.064200
     27 H8           2.4960     1.7800    -1.4160 h1         1 7U6       0.064200
     28 H9           2.6950     1.3720     1.6010 h1         1 7U6       0.073450
     29 H10          1.2200     1.3080     0.6330 h1         1 7U6       0.073450
     30 H11         -0.2790    -3.0460    -0.0570 hn         1 7U6       0.332700
     31 H13         -3.1650    -3.3640    -0.1730 ha         1 7U6       0.142000
     32 H14         -5.1970    -1.9450    -0.1960 ha         1 7U6       0.136000
     33 H15         -5.0470     0.4850    -0.0640 ha         1 7U6       0.134000
     34 H16         -4.2940     2.3090    -1.2620 hn         1 7U6       0.314000
     35 H17         -3.7200     3.7520    -0.5240 hn         1 7U6       0.314000
@<TRIPOS>BOND
     1     1     2 1   
     2     1     6 1   
     3     1    21 1   
     4     1    22 1   
     5     2     3 1   
     6     2    23 1   
     7     2    24 1   
     8     3     4 1   
     9     3    25 1   
    10     4     5 1   
    11     4    26 1   
    12     4    27 1   
    13     5     6 1   
    14     5    28 1   
    15     5    29 1   
    16     6     7 1   
    17     7     8 2   
    18     7     9 1   
    19     9    10 1   
    20     9    11 2   
    21    10    13 1   
    22    10    30 1   
    23    11    12 1   
    24    12    13 ar  
    25    12    17 ar  
    26    13    14 ar  
    27    14    15 ar  
    28    14    31 1   
    29    15    16 ar  
    30    15    32 1   
    31    16    17 ar  
    32    16    33 1   
    33    17    18 1   
    34    18    19 2   
    35    18    20 1   
    36    20    34 1   
    37    20    35 1   
@<TRIPOS>SUBSTRUCTURE
     1 7U6         1 TEMP              0 ****  ****    0 ROOT
