@<TRIPOS>MOLECULE
7U6
   35    37     1     0     0
SMALL
No Charge or Current Charge


@<TRIPOS>ATOM
      1 CAI          4.0870    -0.5590     0.0860 c6         1 7U6       0.050000
      2 CAG          5.0710     0.5840    -0.2750 c6         1 7U6       0.130300
      3 NAL          4.5660     1.9020     0.1560 n7         1 7U6      -0.845400
      4 CAH          3.2880     2.1910    -0.5250 c6         1 7U6       0.130300
      5 CAJ          2.1930     1.1340    -0.2170 c6         1 7U6       0.050000
      6 NAT          2.6260    -0.3080    -0.1760 n          1 7U6      -0.376800
      7 CAO          1.7150    -1.4110    -0.0590 c          1 7U6       0.557800
      8 OAC          2.1780    -2.5500     0.0320 o          1 7U6      -0.631100
      9 CAQ          0.2070    -1.1890    -0.0400 cc         1 7U6       0.367800
     10 NAM         -0.7170    -2.2370     0.0500 na         1 7U6      -0.275600
     11 NAK         -0.4790    -0.0160    -0.0860 nd         1 7U6      -0.546100
     12 CAS         -1.8310    -0.3520    -0.0290 ca         1 7U6       0.102400
     13 CAR         -1.9680    -1.7060     0.0530 ca         1 7U6      -0.083200
     14 CAF         -3.2040    -2.3530     0.1260 ca         1 7U6      -0.091000
     15 CAD         -4.3540    -1.5450     0.1110 ca         1 7U6      -0.100000
     16 CAE         -4.2380    -0.1380     0.0260 ca         1 7U6      -0.109000
     17 CAP         -2.9640     0.4980    -0.0470 ca         1 7U6      -0.088600
     18 CAN         -2.8390     2.0110    -0.1380 c          1 7U6       0.623700
     19 OAB         -1.7790     2.6120    -0.2090 o          1 7U6      -0.580100
     20 NAA         -3.9810     2.7390    -0.1430 nt         1 7U6      -0.611000
     21 H1           4.4070    -1.4610    -0.4560 h1         1 7U6       0.073450
     22 H2           4.2010    -0.7810     1.1570 h1         1 7U6       0.073450
     23 H3           6.0480     0.3830     0.1910 h1         1 7U6       0.064200
     24 H4           5.2290     0.5900    -1.3650 h1         1 7U6       0.064200
     25 H5           4.4020     1.8780     1.1710 hn         1 7U6       0.404000
     26 H7           2.9230     3.1880    -0.2340 h1         1 7U6       0.064200
     27 H8           3.4580     2.2180    -1.6130 h1         1 7U6       0.064200
     28 H9           1.7350     1.3840     0.7510 h1         1 7U6       0.073450
     29 H10          1.4240     1.2620    -0.9900 h1         1 7U6       0.073450
     30 H11         -0.4710    -3.2180     0.1050 hn         1 7U6       0.383000
     31 H13         -3.2770    -3.4370     0.1910 ha         1 7U6       0.124000
     32 H14         -5.3390    -2.0050     0.1660 ha         1 7U6       0.118000
     33 H15         -5.1550     0.4450     0.0180 ha         1 7U6       0.116000
     34 H16         -4.8770     2.2830    -0.0860 hn         1 7U6       0.314000
     35 H17         -3.9200     3.7450    -0.2040 hn         1 7U6       0.314000
@<TRIPOS>BOND
     1     1     2 1   
     2     1     6 1   
     3     1    21 1   
     4     1    22 1   
     5     2     3 1   
     6     2    23 1   
     7     2    24 1   
     8     3     4 1   
     9     3    25 1   
    10     4     5 1   
    11     4    26 1   
    12     4    27 1   
    13     5     6 1   
    14     5    28 1   
    15     5    29 1   
    16     6     7 1   
    17     7     8 2   
    18     7     9 1   
    19     9    10 1   
    20     9    11 2   
    21    10    13 1   
    22    10    30 1   
    23    11    12 1   
    24    12    13 ar  
    25    12    17 ar  
    26    13    14 ar  
    27    14    15 ar  
    28    14    31 1   
    29    15    16 ar  
    30    15    32 1   
    31    16    17 ar  
    32    16    33 1   
    33    17    18 1   
    34    18    19 2   
    35    18    20 1   
    36    20    34 1   
    37    20    35 1   
@<TRIPOS>SUBSTRUCTURE
     1 7U6         1 TEMP              0 ****  ****    0 ROOT
