@<TRIPOS>MOLECULE
7U8
   44    48     1     0     0
SMALL
No Charge or Current Charge


@<TRIPOS>ATOM
      1 C10         -2.6950   -23.4080    27.1560 cc         1 7U8      -0.051400
      2 C11         -1.5770   -23.0860    26.3920 cd         1 7U8      -0.136100
      3 C13         -1.0740   -24.9360    27.5460 ca         1 7U8      -0.048200
      4 C14         -0.4640   -26.1050    28.0210 ca         1 7U8      -0.114000
      5 C15         -1.2370   -26.9970    28.7930 ca         1 7U8       0.134000
      6 C16         -2.6070   -26.7220    29.0410 ca         1 7U8       0.086000
      7 C17         -3.1940   -25.5450    28.5370 ca         1 7U8      -0.049000
      8 C18         -2.3800   -24.6440    27.8290 ca         1 7U8      -0.086800
      9 C21         -5.0210   -22.7450    29.4220 cc         1 7U8      -0.071400
     10 C22         -3.8650   -23.0950    30.1230 cd         1 7U8      -0.121100
     11 C1          -8.3150   -20.4110    26.4230 c3         1 7U8       0.168900
     12 C5          -6.1330   -22.1690    27.2110 cd         1 7U8      -0.285600
     13 C6          -5.0460   -22.5810    27.9630 cc         1 7U8       0.021200
     14 C7          -3.9360   -22.6720    27.0640 cc         1 7U8      -0.108800
     15 C8          -4.2490   -22.0150    25.9070 cd         1 7U8      -0.152000
     16 C24         -5.4330   -22.7740    31.6650 ca         1 7U8      -0.051200
     17 C25         -5.9780   -22.3880    30.4650 ca         1 7U8      -0.070800
     18 C26         -7.1640   -21.6250    30.4550 ca         1 7U8      -0.052000
     19 C27         -7.8450   -21.4070    31.6690 ca         1 7U8       0.096000
     20 C28         -7.3170   -21.8900    32.8840 ca         1 7U8      -0.089000
     21 C29         -6.0780   -22.5580    32.8910 ca         1 7U8      -0.115000
     22 N9          -5.6050   -21.7040    25.9920 na         1 7U8      -0.086000
     23 N12         -0.5300   -23.9930    26.6920 na         1 7U8      -0.216700
     24 N23         -4.1550   -23.2540    31.4950 na         1 7U8      -0.216700
     25 O2          -8.5490   -21.7700    26.8420 os         1 7U8      -0.478100
     26 O4          -7.8910   -23.3950    28.2440 o          1 7U8      -0.392000
     27 Cl1         -3.6070   -27.8460    29.9630 cl         1 7U8      -0.183000
     28 Cl2         -0.4820   -28.4710    29.4010 cl         1 7U8      -0.180000
     29 Cl3         -9.3430   -20.4840    31.6750 cl         1 7U8      -0.223000
     30 H1          -1.4310   -22.2570    25.7050 h4         1 7U8       0.221000
     31 H2           0.5740   -26.3310    27.7880 ha         1 7U8       0.132000
     32 H3          -4.2520   -25.3490    28.6890 ha         1 7U8       0.141000
     33 H4          -2.8580   -23.2580    29.7660 h4         1 7U8       0.223000
     34 H5          -9.2710   -19.9150    26.2140 h1         1 7U8       0.043033
     35 H6          -7.8050   -19.8370    27.2090 h1         1 7U8       0.043033
     36 H7          -7.7240   -20.3650    25.5020 h1         1 7U8       0.043033
     37 H8          -3.6800   -21.8750    24.9950 h4         1 7U8       0.153000
     38 H9          -7.5450   -21.1580    29.5580 ha         1 7U8       0.122000
     39 H10         -7.8420   -21.7030    33.8180 ha         1 7U8       0.126000
     40 H11         -5.6220   -22.8710    33.8270 ha         1 7U8       0.117000
     41 H12         -6.1510   -21.3410    25.2160 hn         1 7U8       0.356000
     42 H13          0.4130   -23.9840    26.3120 hn         1 7U8       0.356000
     43 H14         -3.5080   -23.5360    32.2260 hn         1 7U8       0.354000
     44 C3          -7.5700   -22.4870    27.4950 c          1 7U8       0.640700
@<TRIPOS>BOND
     1     1     2 2   
     2     1     8 1   
     3     1    14 1   
     4     2    23 1   
     5     2    30 1   
     6     3     4 ar  
     7     3     8 ar  
     8     3    23 1   
     9     4     5 ar  
    10     4    31 1   
    11     5     6 ar  
    12     5    28 1   
    13     6     7 ar  
    14     6    27 1   
    15     7     8 ar  
    16     7    32 1   
    17     9    10 2   
    18     9    13 1   
    19     9    17 1   
    20    10    24 1   
    21    10    33 1   
    22    11    25 1   
    23    11    34 1   
    24    11    35 1   
    25    11    36 1   
    26    12    13 2   
    27    12    22 1   
    28    12    44 1   
    29    13    14 1   
    30    14    15 2   
    31    15    22 1   
    32    15    37 1   
    33    16    17 ar  
    34    16    21 ar  
    35    16    24 1   
    36    17    18 ar  
    37    18    19 ar  
    38    18    38 1   
    39    19    20 ar  
    40    19    29 1   
    41    20    21 ar  
    42    20    39 1   
    43    21    40 1   
    44    22    41 1   
    45    23    42 1   
    46    24    43 1   
    47    25    44 1   
    48    26    44 2   
@<TRIPOS>SUBSTRUCTURE
     1 7U8         1 TEMP              0 ****  ****    0 ROOT
