@<TRIPOS>MOLECULE
7U8
   44    48     1     0     0
SMALL
bcc


@<TRIPOS>ATOM
      1 C10         -2.9650   -23.4960    27.4440 cc         1 7U8      -0.051400
      2 C11         -1.9560   -22.5880    27.6160 cd         1 7U8      -0.086100
      3 C13         -1.0170   -24.5690    27.9830 ca         1 7U8      -0.048200
      4 C14         -0.1490   -25.6170    28.2650 ca         1 7U8      -0.132000
      5 C15         -0.6680   -26.8950    28.2380 ca         1 7U8       0.042400
      6 C16         -2.0220   -27.1280    27.9360 ca         1 7U8      -0.005600
      7 C17         -2.8770   -26.0830    27.6530 ca         1 7U8      -0.067000
      8 C18         -2.3780   -24.7810    27.6770 ca         1 7U8      -0.086800
      9 C21         -5.3730   -23.1260    29.4500 cc         1 7U8      -0.071400
     10 C22         -4.7860   -24.1180    30.1910 cd         1 7U8      -0.071100
     11 C1          -8.3450   -20.5200    26.4710 c3         1 7U8       0.145700
     12 C5          -6.5620   -22.7440    27.2260 cd         1 7U8      -0.234900
     13 C6          -5.4510   -23.0580    27.9980 cc         1 7U8       0.021200
     14 C7          -4.3580   -23.2070    27.1010 cc         1 7U8      -0.108800
     15 C8          -4.8510   -23.0000    25.8300 cd         1 7U8      -0.119300
     16 C24         -5.5030   -22.6280    31.6810 ca         1 7U8      -0.051200
     17 C25         -5.8360   -22.1520    30.3950 ca         1 7U8      -0.070800
     18 C26         -6.4750   -20.9160    30.2660 ca         1 7U8      -0.070000
     19 C27         -6.7720   -20.2200    31.4170 ca         1 7U8       0.004400
     20 C28         -6.4560   -20.7020    32.6940 ca         1 7U8      -0.107000
     21 C29         -5.8110   -21.9140    32.8360 ca         1 7U8      -0.133000
     22 N9          -6.1610   -22.7070    25.9170 na         1 7U8      -0.137100
     23 N12         -0.7950   -23.2270    27.9360 na         1 7U8      -0.166400
     24 N23         -4.8680   -23.8230    31.5180 na         1 7U8      -0.166400
     25 O2          -8.7560   -21.8300    26.8690 os         1 7U8      -0.454900
     26 O4          -8.4220   -23.1540    28.5940 o          1 7U8      -0.441000
     27 CL1         -2.6330   -28.7460    27.9140 cl         1 7U8      -0.091400
     28 CL2          0.3790   -28.2250    28.5840 cl         1 7U8      -0.088400
     29 CL3         -7.5720   -18.6780    31.2880 cl         1 7U8      -0.131400
     30 H1          -1.9880   -21.5130    27.5340 h4         1 7U8       0.171000
     31 H2           0.8940   -25.4470    28.4970 ha         1 7U8       0.150000
     32 H3          -3.9170   -26.2760    27.4190 ha         1 7U8       0.159000
     33 H4          -4.3210   -25.0330    29.8630 h4         1 7U8       0.173000
     34 H5          -9.0950   -20.1630    25.7710 h1         1 7U8       0.043033
     35 H6          -8.3190   -19.8550    27.3350 h1         1 7U8       0.043033
     36 H7          -7.3720   -20.5020    25.9830 h1         1 7U8       0.043033
     37 H8          -4.3480   -23.0450    24.8780 h4         1 7U8       0.171000
     38 H9          -6.7160   -20.5060    29.2950 ha         1 7U8       0.140000
     39 H10         -6.7150   -20.1220    33.5700 ha         1 7U8       0.144000
     40 H11         -5.5550   -22.2900    33.8180 ha         1 7U8       0.135000
     41 H12         -6.7690   -22.5930    25.1210 hn         1 7U8       0.305700
     42 H13          0.0860   -22.7710    28.1100 hn         1 7U8       0.305700
     43 H14         -4.5140   -24.4060    32.2600 hn         1 7U8       0.303700
     44 C3          -7.9550   -22.5870    27.6400 c          1 7U8       0.689700
@<TRIPOS>BOND
     1     1     2 2   
     2     1     8 1   
     3     1    14 1   
     4     2    23 1   
     5     2    30 1   
     6     3     4 ar  
     7     3     8 ar  
     8     3    23 1   
     9     4     5 ar  
    10     4    31 1   
    11     5     6 ar  
    12     5    28 1   
    13     6     7 ar  
    14     6    27 1   
    15     7     8 ar  
    16     7    32 1   
    17     9    10 2   
    18     9    13 1   
    19     9    17 1   
    20    10    24 1   
    21    10    33 1   
    22    11    25 1   
    23    11    34 1   
    24    11    35 1   
    25    11    36 1   
    26    12    13 2   
    27    12    22 1   
    28    12    44 1   
    29    13    14 1   
    30    14    15 2   
    31    15    22 1   
    32    15    37 1   
    33    16    17 ar  
    34    16    21 ar  
    35    16    24 1   
    36    17    18 ar  
    37    18    19 ar  
    38    18    38 1   
    39    19    20 ar  
    40    19    29 1   
    41    20    21 ar  
    42    20    39 1   
    43    21    40 1   
    44    22    41 1   
    45    23    42 1   
    46    24    43 1   
    47    25    44 1   
    48    26    44 2   
@<TRIPOS>SUBSTRUCTURE
     1 7U8         1 TEMP              0 ****  ****    0 ROOT
