@<TRIPOS>MOLECULE
7U9
   35    37     1     0     0
SMALL
abcg2


@<TRIPOS>ATOM
      1 CAJ         -3.8340     0.5750    -0.1620 c5         1 7U9       0.093000
      2 CAS         -4.4470    -0.8070    -0.3610 c5         1 7U9       0.140500
      3 NAB         -5.8280    -0.8510     0.0750 n8         1 7U9      -0.987200
      4 CAH         -3.5280    -1.6830     0.4780 c5         1 7U9      -0.100400
      5 CAI         -2.1430    -1.1260     0.1820 c5         1 7U9       0.112000
      6 NAT         -2.4060     0.3020    -0.0290 n          1 7U9      -0.383800
      7 CAN         -1.5400     1.3150    -0.0720 c          1 7U9       0.551800
      8 OAD         -1.8890     2.4890    -0.1800 o          1 7U9      -0.630100
      9 CAP         -0.0810     1.0330     0.0020 cc         1 7U9       0.365800
     10 NAL          0.7700     2.0890     0.0300 na         1 7U9      -0.274600
     11 NAK          0.5340    -0.1180     0.0220 nd         1 7U9      -0.542100
     12 CAR          1.8650     0.1890     0.0740 ca         1 7U9       0.099400
     13 CAQ          2.0340     1.5860     0.0700 ca         1 7U9      -0.083200
     14 CAG          3.2850     2.1960     0.1000 ca         1 7U9      -0.092000
     15 CAE          4.3790     1.3550     0.1210 ca         1 7U9      -0.100000
     16 CAF          4.2340    -0.0420     0.1100 ca         1 7U9      -0.110000
     17 CAO          2.9900    -0.6500     0.0880 ca         1 7U9      -0.088600
     18 CAM          2.8400    -2.1350     0.1560 c          1 7U9       0.624700
     19 OAC          1.9890    -2.6580     0.8580 o          1 7U9      -0.580100
     20 NAA          3.7110    -2.8300    -0.5910 nt         1 7U9      -0.612000
     21 H1          -4.0280     1.2540    -0.9930 h1         1 7U9       0.066700
     22 H2          -4.2290     1.0320     0.7510 h1         1 7U9       0.066700
     23 H3          -4.3170    -1.0890    -1.4170 h1         1 7U9       0.026700
     24 H4          -6.3890    -0.2560    -0.5230 hn         1 7U9       0.398500
     25 H5          -6.1890    -1.7860    -0.0700 hn         1 7U9       0.398500
     26 H7          -3.7750    -1.5530     1.5360 hc         1 7U9       0.064200
     27 H8          -3.6030    -2.7440     0.2400 hc         1 7U9       0.064200
     28 H9          -1.4390    -1.2860     0.9930 h1         1 7U9       0.073200
     29 H10         -1.7170    -1.5740    -0.7170 h1         1 7U9       0.073200
     30 H11          0.4990     3.0600     0.0060 hn         1 7U9       0.382000
     31 H13          3.3970     3.2710     0.1060 ha         1 7U9       0.124000
     32 H14          5.3740     1.7770     0.1510 ha         1 7U9       0.118000
     33 H15          5.1290    -0.6500     0.1460 ha         1 7U9       0.115000
     34 H16          4.3490    -2.3840    -1.2280 hn         1 7U9       0.314000
     35 H17          3.7080    -3.8370    -0.5680 hn         1 7U9       0.314000
@<TRIPOS>BOND
     1     1     2 1   
     2     1     6 1   
     3     1    21 1   
     4     1    22 1   
     5     2     3 1   
     6     2     4 1   
     7     2    23 1   
     8     3    24 1   
     9     3    25 1   
    10     4     5 1   
    11     4    26 1   
    12     4    27 1   
    13     5     6 1   
    14     5    28 1   
    15     5    29 1   
    16     6     7 1   
    17     7     8 2   
    18     7     9 1   
    19     9    10 1   
    20     9    11 2   
    21    10    13 1   
    22    10    30 1   
    23    11    12 1   
    24    12    13 ar  
    25    12    17 ar  
    26    13    14 ar  
    27    14    15 ar  
    28    14    31 1   
    29    15    16 ar  
    30    15    32 1   
    31    16    17 ar  
    32    16    33 1   
    33    17    18 1   
    34    18    19 2   
    35    18    20 1   
    36    20    34 1   
    37    20    35 1   
@<TRIPOS>SUBSTRUCTURE
     1 7U9         1 TEMP              0 ****  ****    0 ROOT
