@<TRIPOS>MOLECULE
7U9
   35    37     1     0     0
SMALL
No Charge or Current Charge


@<TRIPOS>ATOM
      1 CAJ         -3.9770     0.6130     0.0220 c5         1 7U9       0.093000
      2 CAS         -4.5060    -0.8050    -0.3490 c5         1 7U9       0.140500
      3 NAB         -5.9280    -1.0330    -0.0480 n8         1 7U9      -0.987200
      4 CAH         -3.5610    -1.6950     0.4880 c5         1 7U9      -0.100400
      5 CAI         -2.1770    -1.0560     0.1940 c5         1 7U9       0.112000
      6 NAT         -2.5140     0.3860     0.0880 n          1 7U9      -0.383800
      7 CAN         -1.5870     1.4690     0.0730 c          1 7U9       0.551800
      8 OAD         -2.0250     2.6200     0.0750 o          1 7U9      -0.630100
      9 CAP         -0.0930     1.1900     0.0440 cc         1 7U9       0.365800
     10 NAL          0.8810     2.1940     0.0500 na         1 7U9      -0.274600
     11 NAK          0.5300    -0.0170    -0.0090 nd         1 7U9      -0.542100
     12 CAR          1.8980     0.2530    -0.0290 ca         1 7U9       0.099400
     13 CAQ          2.1040     1.6010     0.0070 ca         1 7U9      -0.083200
     14 CAG          3.3720     2.1880    -0.0020 ca         1 7U9      -0.092000
     15 CAE          4.4800     1.3240    -0.0520 ca         1 7U9      -0.100000
     16 CAF          4.2920    -0.0780    -0.0890 ca         1 7U9      -0.110000
     17 CAO          2.9870    -0.6510    -0.0790 ca         1 7U9      -0.088600
     18 CAM          2.7850    -2.1590    -0.1190 c          1 7U9       0.624700
     19 OAC          1.6950    -2.7080    -0.1060 o          1 7U9      -0.580100
     20 NAA          3.8880    -2.9420    -0.1730 nt         1 7U9      -0.612000
     21 H1          -4.2510     1.3590    -0.7360 h1         1 7U9       0.066700
     22 H2          -4.3590     0.9480     0.9950 h1         1 7U9       0.066700
     23 H3          -4.3590    -0.9990    -1.4220 h1         1 7U9       0.026700
     24 H4          -6.5040    -0.4670    -0.6840 hn         1 7U9       0.398500
     25 H5          -6.1760    -1.9970    -0.3010 hn         1 7U9       0.398500
     26 H7          -3.8000    -1.6370     1.5570 hc         1 7U9       0.064200
     27 H8          -3.5990    -2.7500     0.1980 hc         1 7U9       0.064200
     28 H9          -1.4720    -1.2690     1.0080 h1         1 7U9       0.073200
     29 H10         -1.7550    -1.4290    -0.7490 h1         1 7U9       0.073200
     30 H11          0.6860     3.1870     0.0790 hn         1 7U9       0.382000
     31 H13          3.5000     3.2680     0.0270 ha         1 7U9       0.124000
     32 H14          5.4870     1.7360    -0.0600 ha         1 7U9       0.118000
     33 H15          5.1780    -0.7060    -0.1270 ha         1 7U9       0.115000
     34 H16          4.8060    -2.5280    -0.1860 hn         1 7U9       0.314000
     35 H17          3.7760    -3.9440    -0.2000 hn         1 7U9       0.314000
@<TRIPOS>BOND
     1     1     2 1   
     2     1     6 1   
     3     1    21 1   
     4     1    22 1   
     5     2     3 1   
     6     2     4 1   
     7     2    23 1   
     8     3    24 1   
     9     3    25 1   
    10     4     5 1   
    11     4    26 1   
    12     4    27 1   
    13     5     6 1   
    14     5    28 1   
    15     5    29 1   
    16     6     7 1   
    17     7     8 2   
    18     7     9 1   
    19     9    10 1   
    20     9    11 2   
    21    10    13 1   
    22    10    30 1   
    23    11    12 1   
    24    12    13 ar  
    25    12    17 ar  
    26    13    14 ar  
    27    14    15 ar  
    28    14    31 1   
    29    15    16 ar  
    30    15    32 1   
    31    16    17 ar  
    32    16    33 1   
    33    17    18 1   
    34    18    19 2   
    35    18    20 1   
    36    20    34 1   
    37    20    35 1   
@<TRIPOS>SUBSTRUCTURE
     1 7U9         1 TEMP              0 ****  ****    0 ROOT
