@<TRIPOS>MOLECULE
7UB
   63    68     1     0     0
SMALL
No Charge or Current Charge


@<TRIPOS>ATOM
      1 C4          -3.8240     6.7990   -45.2780 ca         1 7UB       0.187300
      2 C5          -4.4120     7.0050   -46.5330 ca         1 7UB      -0.283300
      3 C6          -5.7620     7.4310   -46.5930 ca         1 7UB       0.170900
      4 N1          -6.5260     7.6410   -45.4940 nb         1 7UB      -0.243000
      5 N3          -4.6270     7.0150   -44.1670 nb         1 7UB      -0.243000
      6 C2          -5.9410     7.4240   -44.3090 ca         1 7UB       0.391900
      7 CAB         -1.5460     6.8290   -46.3880 c          1 7UB       0.589000
      8 CAC         -2.3930     6.3000   -45.2020 c5         1 7UB      -0.188300
      9 CAF         -3.6200     6.7690   -47.8160 c6         1 7UB       0.185300
     10 CAL         -2.4810     4.7380   -45.2430 c5         1 7UB       0.179800
     11 CAN         -2.0430     5.3130   -43.0250 c5         1 7UB       0.166800
     12 CAO         -1.7570     6.6200   -43.7950 c5         1 7UB      -0.064400
     13 CAQ         -6.3550     7.2990   -41.7840 c3         1 7UB       0.266800
     14 CAS         -1.3890     6.1780   -48.8060 ca         1 7UB      -0.088000
     15 CAT         -0.1800     5.4630   -48.6530 ca         1 7UB      -0.065000
     16 CAU          0.6630     5.2200   -49.7520 ca         1 7UB      -0.167500
     17 CAV          0.3340     5.7350   -51.0220 ca         1 7UB       0.145100
     18 CAW         -0.8260     6.5090   -51.1670 ca         1 7UB      -0.167500
     19 CAX         -1.6680     6.7510   -50.0680 ca         1 7UB      -0.065000
     20 CAY         -6.3550     5.7900   -41.5580 cx         1 7UB      -0.155700
     21 CAZ         -6.4130     5.2220   -40.1570 cx         1 7UB      -0.128400
     22 CBA         -7.5950     5.0650   -41.0850 cx         1 7UB      -0.128400
     23 CBB         -0.8390     2.5090   -42.6120 cc         1 7UB      -0.153300
     24 CBE          0.2730     1.6410   -40.8710 cd         1 7UB       0.232900
     25 CBF         -0.9550     1.6420   -41.5630 cd         1 7UB      -0.233000
     26 CBH          2.3340     4.7600   -52.0900 c3         1 7UB       0.147900
     27 NAA         -2.1610     6.5370   -47.6340 n          1 7UB      -0.244400
     28 NAK         -6.7130     7.6240   -43.1740 nu         1 7UB      -0.913100
     29 NAM         -1.6780     4.3290   -44.0680 n3         1 7UB      -0.741600
     30 NBC          0.4630     2.9880   -42.4940 na         1 7UB       0.016800
     31 NBD          1.1600     2.4540   -41.4160 nc         1 7UB      -0.519800
     32 OAR         -0.4380     7.3500   -46.3080 o          1 7UB      -0.526000
     33 OBG          1.1220     5.5340   -52.1370 os         1 7UB      -0.340100
     34 H1          -6.2480     7.6020   -47.5520 h4         1 7UB       0.023100
     35 H2          -3.7610     7.6500   -48.4550 h1         1 7UB       0.051200
     36 H3          -4.0500     5.9060   -48.3450 h1         1 7UB       0.051200
     37 H4          -3.5190     4.3890   -45.1440 h1         1 7UB       0.046200
     38 H5          -2.0810     4.3110   -46.1730 h1         1 7UB       0.046200
     39 H6          -1.4240     5.2270   -42.1210 h1         1 7UB       0.047200
     40 H7          -3.0980     5.2260   -42.7280 h1         1 7UB       0.047200
     41 H8          -0.6730     6.7700   -43.8520 hc         1 7UB       0.074700
     42 H9          -2.1670     7.5090   -43.3030 hc         1 7UB       0.074700
     43 H10         -2.8370     2.7040   -43.3360 h1         1 7UB       0.047700
     44 H11         -1.6380     2.2680   -44.5610 h1         1 7UB       0.047700
     45 H12         -5.3630     7.7050   -41.5420 h1         1 7UB       0.060200
     46 H13         -7.0740     7.7640   -41.0960 h1         1 7UB       0.060200
     47 H14          0.1020     5.0660   -47.6810 ha         1 7UB       0.121000
     48 H15          1.5670     4.6390   -49.5960 ha         1 7UB       0.125000
     49 H16         -1.0680     6.9350   -52.1370 ha         1 7UB       0.125000
     50 H17         -2.5370     7.3850   -50.2180 ha         1 7UB       0.121000
     51 H18         -5.7120     5.2610   -42.2580 hc         1 7UB       0.091700
     52 H19         -5.8150     4.3390   -39.9430 hc         1 7UB       0.071700
     53 H20         -6.5120     5.9160   -39.3260 hc         1 7UB       0.071700
     54 H21         -8.4850     5.6540   -40.8760 hc         1 7UB       0.071700
     55 H22         -7.7910     4.0770   -41.4950 hc         1 7UB       0.071700
     56 H23          0.5420     1.0720   -39.9890 h4         1 7UB       0.033100
     57 H24         -1.8310     1.0570   -41.3050 ha         1 7UB       0.140000
     58 H25          2.7990     4.7220   -53.0830 h1         1 7UB       0.042033
     59 H26          3.0550     5.2070   -51.3940 h1         1 7UB       0.042033
     60 H27          2.1280     3.7300   -51.7710 h1         1 7UB       0.042033
     61 H28         -7.6800     7.8960   -43.3530 hn         1 7UB       0.506000
     62 H30          0.8870     3.6740   -43.1170 hn         1 7UB       0.387000
     63 CAP         -1.8160     2.9080   -43.6860 c3         1 7UB       0.241100
@<TRIPOS>BOND
     1     1     2 ar  
     2     1     5 ar  
     3     1     8 1   
     4     2     3 ar  
     5     2     9 1   
     6     3     4 ar  
     7     3    34 1   
     8     4     6 ar  
     9     5     6 ar  
    10     6    28 1   
    11     7     8 1   
    12     7    27 1   
    13     7    32 2   
    14     8    10 1   
    15     8    12 1   
    16     9    27 1   
    17     9    35 1   
    18     9    36 1   
    19    10    29 1   
    20    10    37 1   
    21    10    38 1   
    22    11    12 1   
    23    11    29 1   
    24    11    39 1   
    25    11    40 1   
    26    12    41 1   
    27    12    42 1   
    28    13    20 1   
    29    13    28 1   
    30    13    45 1   
    31    13    46 1   
    32    14    15 ar  
    33    14    19 ar  
    34    14    27 1   
    35    15    16 ar  
    36    15    47 1   
    37    16    17 ar  
    38    16    48 1   
    39    17    18 ar  
    40    17    33 1   
    41    18    19 ar  
    42    18    49 1   
    43    19    50 1   
    44    20    21 1   
    45    20    22 1   
    46    20    51 1   
    47    21    22 1   
    48    21    52 1   
    49    21    53 1   
    50    22    54 1   
    51    22    55 1   
    52    23    25 2   
    53    23    30 1   
    54    23    63 1   
    55    24    25 1   
    56    24    31 2   
    57    24    56 1   
    58    25    57 1   
    59    26    33 1   
    60    26    58 1   
    61    26    59 1   
    62    26    60 1   
    63    28    61 1   
    64    29    63 1   
    65    30    31 1   
    66    30    62 1   
    67    43    63 1   
    68    44    63 1   
@<TRIPOS>SUBSTRUCTURE
     1 7UB         1 TEMP              0 ****  ****    0 ROOT
