@<TRIPOS>MOLECULE
7UB
   63    68     1     0     0
SMALL
abcg2


@<TRIPOS>ATOM
      1 C4          -4.0910     6.4090   -45.2280 ca         1 7UB       0.187300
      2 C5          -4.4650     6.3770   -46.5620 ca         1 7UB      -0.283300
      3 C6          -5.7150     6.9040   -46.8500 ca         1 7UB       0.170900
      4 N1          -6.5210     7.3960   -45.9290 nb         1 7UB      -0.243000
      5 N3          -4.8750     6.9020   -44.2870 nb         1 7UB      -0.243000
      6 C2          -6.0660     7.3730   -44.6670 ca         1 7UB       0.391900
      7 CAB         -1.7150     6.0880   -45.9380 c          1 7UB       0.589000
      8 CAC         -2.7630     5.8050   -44.8540 c5         1 7UB      -0.188300
      9 CAF         -3.5430     5.7980   -47.5810 c6         1 7UB       0.185300
     10 CAL         -2.9020     4.2710   -44.7230 c5         1 7UB       0.179800
     11 CAN         -1.6140     4.8950   -42.8990 c5         1 7UB       0.166800
     12 CAO         -2.2360     6.1820   -43.4630 c5         1 7UB      -0.064400
     13 CAQ         -6.6040     7.8330   -42.3040 c3         1 7UB       0.266800
     14 CAS         -1.2180     6.1460   -48.2850 ca         1 7UB      -0.088000
     15 CAT         -0.4070     5.0760   -48.6250 ca         1 7UB      -0.065000
     16 CAU          0.4790     5.1650   -49.6910 ca         1 7UB      -0.167500
     17 CAV          0.5510     6.3400   -50.4370 ca         1 7UB       0.145100
     18 CAW         -0.2680     7.4190   -50.0940 ca         1 7UB      -0.167500
     19 CAX         -1.1390     7.3200   -49.0270 ca         1 7UB      -0.065000
     20 CAY         -6.8360     6.4760   -41.6890 cx         1 7UB      -0.155700
     21 CAZ         -7.2450     6.3850   -40.2520 cx         1 7UB      -0.128400
     22 CBA         -8.2280     6.0530   -41.3360 cx         1 7UB      -0.128400
     23 CBB         -0.2850     2.1880   -43.0900 cc         1 7UB      -0.153300
     24 CBE          1.5660     1.4160   -42.1840 cd         1 7UB       0.232900
     25 CBF          0.1650     1.3440   -42.0990 cd         1 7UB      -0.233000
     26 CBH          2.2420     5.4790   -51.8600 c3         1 7UB       0.147900
     27 NAA         -2.1540     6.0410   -47.2200 n          1 7UB      -0.244400
     28 NAK         -6.8750     7.8870   -43.7230 nu         1 7UB      -0.913100
     29 NAM         -1.7190     3.9200   -43.9770 n3         1 7UB      -0.741600
     30 NBC          0.8180     2.6870   -43.6760 na         1 7UB       0.016800
     31 NBD          1.9500     2.2400   -43.1420 nc         1 7UB      -0.519800
     32 OAR         -0.5510     6.3170   -45.6640 o          1 7UB      -0.526000
     33 OBG          1.3640     6.5230   -51.4920 os         1 7UB      -0.340100
     34 H1          -6.0770     6.9280   -47.8740 h4         1 7UB       0.023100
     35 H2          -3.7280     6.2580   -48.5520 h1         1 7UB       0.051200
     36 H3          -3.7160     4.7230   -47.7120 h1         1 7UB       0.051200
     37 H4          -3.8380     4.0420   -44.1870 h1         1 7UB       0.046200
     38 H5          -2.9350     3.7390   -45.6770 h1         1 7UB       0.046200
     39 H6          -0.5730     5.0280   -42.5980 h1         1 7UB       0.047200
     40 H7          -2.1710     4.5660   -42.0100 h1         1 7UB       0.047200
     41 H8          -1.5260     7.0050   -43.5090 hc         1 7UB       0.074700
     42 H9          -3.0670     6.5050   -42.8400 hc         1 7UB       0.074700
     43 H10         -2.3800     2.3000   -42.7660 h1         1 7UB       0.047700
     44 H11         -1.9150     1.9120   -44.4180 h1         1 7UB       0.047700
     45 H12         -5.5770     8.1570   -42.1240 h1         1 7UB       0.060200
     46 H13         -7.2530     8.5700   -41.8270 h1         1 7UB       0.060200
     47 H14         -0.4630     4.1560   -48.0560 ha         1 7UB       0.121000
     48 H15          1.0970     4.3090   -49.9260 ha         1 7UB       0.125000
     49 H16         -0.2130     8.3350   -50.6700 ha         1 7UB       0.125000
     50 H17         -1.7680     8.1630   -48.7670 ha         1 7UB       0.121000
     51 H18         -6.1720     5.6980   -42.0500 hc         1 7UB       0.091700
     52 H19         -6.8430     5.5760   -39.6550 hc         1 7UB       0.071700
     53 H20         -7.3880     7.3090   -39.7060 hc         1 7UB       0.071700
     54 H21         -9.0330     6.7540   -41.5200 hc         1 7UB       0.071700
     55 H22         -8.5020     5.0150   -41.4800 hc         1 7UB       0.071700
     56 H23          2.3000     0.9040   -41.5800 h4         1 7UB       0.033100
     57 H24         -0.4340     0.7670   -41.4140 ha         1 7UB       0.140000
     58 H25          2.8120     5.8430   -52.7120 h1         1 7UB       0.042033
     59 H26          2.9370     5.2270   -51.0550 h1         1 7UB       0.042033
     60 H27          1.7040     4.5760   -52.1580 h1         1 7UB       0.042033
     61 H28         -7.8050     8.1300   -44.0210 hn         1 7UB       0.506000
     62 H30          0.8380     3.3630   -44.4240 hn         1 7UB       0.387000
     63 CAP         -1.6570     2.5410   -43.5600 c3         1 7UB       0.241100
@<TRIPOS>BOND
     1     1     2 ar  
     2     1     5 ar  
     3     1     8 1   
     4     2     3 ar  
     5     2     9 1   
     6     3     4 ar  
     7     3    34 1   
     8     4     6 ar  
     9     5     6 ar  
    10     6    28 1   
    11     7     8 1   
    12     7    27 1   
    13     7    32 2   
    14     8    10 1   
    15     8    12 1   
    16     9    27 1   
    17     9    35 1   
    18     9    36 1   
    19    10    29 1   
    20    10    37 1   
    21    10    38 1   
    22    11    12 1   
    23    11    29 1   
    24    11    39 1   
    25    11    40 1   
    26    12    41 1   
    27    12    42 1   
    28    13    20 1   
    29    13    28 1   
    30    13    45 1   
    31    13    46 1   
    32    14    15 ar  
    33    14    19 ar  
    34    14    27 1   
    35    15    16 ar  
    36    15    47 1   
    37    16    17 ar  
    38    16    48 1   
    39    17    18 ar  
    40    17    33 1   
    41    18    19 ar  
    42    18    49 1   
    43    19    50 1   
    44    20    21 1   
    45    20    22 1   
    46    20    51 1   
    47    21    22 1   
    48    21    52 1   
    49    21    53 1   
    50    22    54 1   
    51    22    55 1   
    52    23    25 2   
    53    23    30 1   
    54    23    63 1   
    55    24    25 1   
    56    24    31 2   
    57    24    56 1   
    58    25    57 1   
    59    26    33 1   
    60    26    58 1   
    61    26    59 1   
    62    26    60 1   
    63    28    61 1   
    64    29    63 1   
    65    30    31 1   
    66    30    62 1   
    67    43    63 1   
    68    44    63 1   
@<TRIPOS>SUBSTRUCTURE
     1 7UB         1 TEMP              0 ****  ****    0 ROOT
