@<TRIPOS>MOLECULE
7UC
   20    19     1     0     0
SMALL
bcc


@<TRIPOS>ATOM
      1 OAC         -3.5440    -1.0890     0.7930 o          1 7UC      -0.855800
      2 CAJ         -2.5290    -0.7420     0.1550 c          1 7UC       0.927600
      3 OAE         -1.8650    -1.4640    -0.6180 o          1 7UC      -0.855800
      4 CAG         -2.0920     0.7230     0.3420 c3         1 7UC      -0.198400
      5 CAK         -0.7690     1.1450    -0.2820 c3         1 7UC       0.197500
      6 CAA         -0.5710     2.6480    -0.1100 c3         1 7UC      -0.081100
      7 N            0.3270     0.4140     0.3320 n7         1 7UC      -0.807200
      8 CA           1.6070     0.6120    -0.3110 c3         1 7UC       0.030800
      9 C            2.6060    -0.5270    -0.0350 c          1 7UC       0.921600
     10 OXT          3.7980    -0.2800    -0.3090 o          1 7UC      -0.857300
     11 O            2.1490    -1.6030     0.3990 o          1 7UC      -0.857300
     12 H2          -2.8910     1.3530    -0.0670 hc         1 7UC       0.009200
     13 H3          -2.0680     0.9470     1.4150 hc         1 7UC       0.009200
     14 H4          -0.8180     0.9420    -1.3670 h1         1 7UC       0.005700
     15 H5           0.3440     3.0000    -0.5890 hc         1 7UC       0.004700
     16 H6          -1.4020     3.2020    -0.5490 hc         1 7UC       0.004700
     17 H7          -0.5160     2.9120     0.9500 hc         1 7UC       0.004700
     18 H8           0.1180    -0.5750     0.2680 hn         1 7UC       0.415800
     19 H10          1.5120     0.6930    -1.4110 h1         1 7UC      -0.008800
     20 H11          2.0610     1.5550     0.0090 h1         1 7UC      -0.008800
@<TRIPOS>BOND
     1     1     2 1   
     2     2     3 1   
     3     2     4 1   
     4     4     5 1   
     5     4    12 1   
     6     4    13 1   
     7     5     6 1   
     8     5     7 1   
     9     5    14 1   
    10     6    15 1   
    11     6    16 1   
    12     6    17 1   
    13     7     8 1   
    14     7    18 1   
    15     8     9 1   
    16     8    19 1   
    17     8    20 1   
    18     9    10 1   
    19     9    11 1   
@<TRIPOS>SUBSTRUCTURE
     1 7UC         1 TEMP              0 ****  ****    0 ROOT
