@<TRIPOS>MOLECULE
7UC
   20    19     1     0     0
SMALL
No Charge or Current Charge


@<TRIPOS>ATOM
      1 OAC         -2.0220    -1.5640     0.5030 o          1 7UC      -0.750500
      2 CAJ         -2.4580    -0.6520    -0.1830 c          1 7UC       0.717000
      3 OAE         -3.0560    -0.8240    -1.2350 o          1 7UC      -0.750500
      4 CAG         -2.1710     0.7880     0.2640 c3         1 7UC      -0.198400
      5 CAK         -0.7990     1.2290    -0.2910 c3         1 7UC       0.197500
      6 CAA         -0.5730     2.7550    -0.1480 c3         1 7UC      -0.081100
      7 N            0.2590     0.4830     0.4100 n7         1 7UC      -0.862400
      8 CA           1.5770     0.3780    -0.3000 c3         1 7UC       0.030800
      9 C            2.6500    -0.5530     0.3930 c          1 7UC       0.711000
     10 OXT          3.7010    -0.0550     0.7760 o          1 7UC      -0.752000
     11 O            2.3820    -1.7390     0.5410 o          1 7UC      -0.752000
     12 H2          -2.9140     1.4710    -0.1680 hc         1 7UC       0.009200
     13 H3          -2.1040     0.8570     1.3580 hc         1 7UC       0.009200
     14 H4          -0.7820     0.9840    -1.3620 h1         1 7UC       0.005700
     15 H5           0.3820     3.0580    -0.5930 hc         1 7UC       0.004700
     16 H6          -1.3670     3.3100    -0.6630 hc         1 7UC       0.004700
     17 H7          -0.5750     3.0570     0.9060 hc         1 7UC       0.004700
     18 H8          -0.1000    -0.4780     0.5340 hn         1 7UC       0.471000
     19 H10          1.4120    -0.0180    -1.3110 h1         1 7UC      -0.008800
     20 H11          2.0150     1.3780    -0.4160 h1         1 7UC      -0.008800
@<TRIPOS>BOND
     1     1     2 1   
     2     2     3 1   
     3     2     4 1   
     4     4     5 1   
     5     4    12 1   
     6     4    13 1   
     7     5     6 1   
     8     5     7 1   
     9     5    14 1   
    10     6    15 1   
    11     6    16 1   
    12     6    17 1   
    13     7     8 1   
    14     7    18 1   
    15     8     9 1   
    16     8    19 1   
    17     8    20 1   
    18     9    10 1   
    19     9    11 1   
@<TRIPOS>SUBSTRUCTURE
     1 7UC         1 TEMP              0 ****  ****    0 ROOT
