@<TRIPOS>MOLECULE
7UD
   67    70     1     0     0
SMALL
No Charge or Current Charge


@<TRIPOS>ATOM
      1 C4           2.2810     4.6680     0.4180 ca         1 7UD      -0.065000
      2 C5           1.3530     3.6480     0.7100 ca         1 7UD      -0.139300
      3 C6           1.5660     2.7700     1.9420 c3         1 7UD       0.152300
      4 C7          -1.7400     2.0860    -0.7120 c3         1 7UD       0.160600
      5 C8          -2.4870     0.9090    -0.0560 c3         1 7UD      -0.085400
      6 C10         -4.3930    -0.8110    -0.2620 c3         1 7UD      -0.054400
      7 C13          3.0510     0.8280     1.3210 c3         1 7UD       0.150300
      8 C15          0.5520    -0.9260     1.4890 ca         1 7UD      -0.144600
      9 C17          0.7800    -1.0960     0.1060 ca         1 7UD      -0.072500
     10 C20         -0.1620    -3.2650     1.6080 ca         1 7UD      -0.107500
     11 C21          3.8560     1.6930     0.3540 ca         1 7UD      -0.090300
     12 C22         -0.1400    -4.7280    -0.4420 cc         1 7UD      -0.108000
     13 C24          4.2230     2.5910    -1.8870 ca         1 7UD      -0.111500
     14 C26          5.7070     3.2290    -0.0690 ca         1 7UD      -0.111500
     15 C28          0.0390    -5.1040    -1.7900 cc         1 7UD      -0.163000
     16 O3           0.0220     0.7280     3.1120 o          1 7UD      -0.573100
     17 C14          0.7370     0.4160     2.1660 c          1 7UD       0.621700
     18 C18          0.5560    -2.3370    -0.5110 ca         1 7UD      -0.107500
     19 C19          0.0870    -3.4400     0.2300 ca         1 7UD       0.019000
     20 C29         -0.6000    -5.8480     0.2050 cd         1 7UD       0.129900
     21 O4          -0.7210    -6.9150    -0.6590 os         1 7UD      -0.241000
     22 C30         -0.3200    -6.4190    -1.8780 cd         1 7UD       0.111900
     23 C16          0.0590    -2.0220     2.2260 ca         1 7UD      -0.072500
     24 N            1.6820     1.3210     1.6260 n          1 7UD      -0.398800
     25 C27          4.9720     2.4200     0.8150 ca         1 7UD      -0.098000
     26 C25          5.3320     3.3160    -1.4200 ca         1 7UD      -0.112000
     27 C23          3.4890     1.7810    -1.0040 ca         1 7UD      -0.098000
     28 C3           2.1210     5.4710    -0.7220 ca         1 7UD      -0.160000
     29 C2           1.0290     5.2680    -1.5780 ca         1 7UD      -0.069000
     30 C1           0.0920     4.2610    -1.2940 ca         1 7UD      -0.208000
     31 C            0.2470     3.4470    -0.1480 ca         1 7UD       0.175100
     32 O           -0.6610     2.4520     0.1620 os         1 7UD      -0.340100
     33 C9          -3.6600     0.3850    -0.9110 c3         1 7UD      -0.077400
     34 C11         -5.5740    -1.3360    -1.1140 c3         1 7UD      -0.204400
     35 C12         -6.2660    -2.5110    -0.3980 c          1 7UD       0.716000
     36 O1          -5.8500    -3.6400    -0.6080 o          1 7UD      -0.742000
     37 O2          -7.1710    -2.2580     0.3820 o          1 7UD      -0.742000
     38 H3           3.1380     4.8310     1.0680 ha         1 7UD       0.104000
     39 H5           2.4750     3.0880     2.4700 h1         1 7UD       0.059700
     40 H4           0.7300     2.9530     2.6290 h1         1 7UD       0.059700
     41 H7          -1.3540     1.7750    -1.6920 h1         1 7UD       0.027200
     42 H6          -2.4300     2.9280    -0.8530 h1         1 7UD       0.027200
     43 H8          -1.7800     0.0900     0.1180 hc         1 7UD       0.058200
     44 H9          -2.8630     1.2260     0.9240 hc         1 7UD       0.058200
     45 H13         -3.6760    -1.6260    -0.0960 hc         1 7UD       0.043200
     46 H12         -4.7660    -0.5100     0.7250 hc         1 7UD       0.043200
     47 H16          3.0120    -0.1890     0.9160 h1         1 7UD       0.050700
     48 H17          3.5960     0.7560     2.2720 h1         1 7UD       0.050700
     49 H19          1.1040    -0.2570    -0.5030 ha         1 7UD       0.121000
     50 H21         -0.5340    -4.0830     2.2160 ha         1 7UD       0.113500
     51 H23          3.9290     2.6610    -2.9320 ha         1 7UD       0.109000
     52 H25          6.5650     3.7910     0.2940 ha         1 7UD       0.109000
     53 H27          0.3930    -4.4720    -2.5980 ha         1 7UD       0.150000
     54 H20          0.7420    -2.4310    -1.5770 ha         1 7UD       0.113500
     55 H28         -0.8700    -6.0220     1.2380 h4         1 7UD       0.049100
     56 H29         -0.3330    -7.0950    -2.7240 h4         1 7UD       0.050100
     57 H18         -0.1490    -1.9140     3.2890 ha         1 7UD       0.121000
     58 H26          5.2680     2.3650     1.8600 ha         1 7UD       0.115500
     59 H24          5.8990     3.9450    -2.1030 ha         1 7UD       0.106000
     60 H22          2.6270     1.2340    -1.3750 ha         1 7UD       0.115500
     61 H2           2.8470     6.2500    -0.9430 ha         1 7UD       0.107000
     62 H1           0.9080     5.8910    -2.4620 ha         1 7UD       0.104000
     63 H           -0.7460     4.1290    -1.9700 ha         1 7UD       0.120000
     64 H11         -4.3750     1.2000    -1.0790 hc         1 7UD       0.023200
     65 H10         -3.2800     0.0830    -1.8950 hc         1 7UD       0.023200
     66 H15         -6.2660    -0.4910    -1.2200 hc         1 7UD       0.013700
     67 H14         -5.1350    -1.6690    -2.0630 hc         1 7UD       0.013700
@<TRIPOS>BOND
     1     1     2 ar  
     2     1    28 ar  
     3     1    38 1   
     4     2     3 1   
     5     2    31 ar  
     6     3    24 1   
     7     3    39 1   
     8     3    40 1   
     9     4     5 1   
    10     4    32 1   
    11     4    41 1   
    12     4    42 1   
    13     5    33 1   
    14     5    43 1   
    15     5    44 1   
    16     6    33 1   
    17     6    34 1   
    18     6    45 1   
    19     6    46 1   
    20     7    11 1   
    21     7    24 1   
    22     7    47 1   
    23     7    48 1   
    24     8     9 ar  
    25     8    17 1   
    26     8    23 ar  
    27     9    18 ar  
    28     9    49 1   
    29    10    19 ar  
    30    10    23 ar  
    31    10    50 1   
    32    11    25 ar  
    33    11    27 ar  
    34    12    15 1   
    35    12    19 1   
    36    12    20 2   
    37    13    26 ar  
    38    13    27 ar  
    39    13    51 1   
    40    14    25 ar  
    41    14    26 ar  
    42    14    52 1   
    43    15    22 2   
    44    15    53 1   
    45    16    17 2   
    46    17    24 1   
    47    18    19 ar  
    48    18    54 1   
    49    20    21 1   
    50    20    55 1   
    51    21    22 1   
    52    22    56 1   
    53    23    57 1   
    54    25    58 1   
    55    26    59 1   
    56    27    60 1   
    57    28    29 ar  
    58    28    61 1   
    59    29    30 ar  
    60    29    62 1   
    61    30    31 ar  
    62    30    63 1   
    63    31    32 1   
    64    33    64 1   
    65    33    65 1   
    66    34    35 1   
    67    34    66 1   
    68    34    67 1   
    69    35    36 1   
    70    35    37 1   
@<TRIPOS>SUBSTRUCTURE
     1 7UD         1 TEMP              0 ****  ****    0 ROOT
