@<TRIPOS>MOLECULE
7UD
   67    70     1     0     0
SMALL
abcg2


@<TRIPOS>ATOM
      1 C4           2.3300     4.5370     1.0720 ca         1 7UD      -0.065000
      2 C5           1.3100     3.6090     1.1940 ca         1 7UD      -0.139300
      3 C6           1.3460     2.5620     2.2740 c3         1 7UD       0.152300
      4 C7          -1.7420     2.5790    -0.5010 c3         1 7UD       0.160600
      5 C8          -2.5040     1.3090    -0.1880 c3         1 7UD      -0.085400
      6 C10         -4.4270    -0.2000    -0.8580 c3         1 7UD      -0.054400
      7 C13          2.8030     0.8090     1.3480 c3         1 7UD       0.150300
      8 C15          0.6420    -1.0980     1.5420 ca         1 7UD      -0.144600
      9 C17          0.6710    -1.3710     0.1790 ca         1 7UD      -0.072500
     10 C20          0.6400    -3.4690     1.9800 ca         1 7UD      -0.107500
     11 C21          3.2750     1.4220     0.0520 ca         1 7UD      -0.090300
     12 C22          0.7110    -5.1280     0.1230 cc         1 7UD      -0.108000
     13 C24          2.8960     2.1700    -2.2110 ca         1 7UD      -0.111500
     14 C26          5.1030     2.2760    -1.2800 ca         1 7UD      -0.111500
     15 C28          0.3990    -5.5930    -1.2000 cc         1 7UD      -0.163000
     16 O3          -0.4640     0.5520     2.7780 o          1 7UD      -0.573100
     17 C14          0.5070     0.2920     2.0830 c          1 7UD       0.621700
     18 C18          0.6840    -2.6790    -0.2790 ca         1 7UD      -0.107500
     19 C19          0.6800    -3.7520     0.6120 ca         1 7UD       0.019000
     20 C29          1.0460    -6.2450     0.8240 cd         1 7UD       0.129900
     21 O4           0.9590    -7.3370     0.0460 os         1 7UD      -0.241000
     22 C30          0.5640    -6.9330    -1.1790 cd         1 7UD       0.111900
     23 C16          0.6080    -2.1650     2.4370 ca         1 7UD      -0.072500
     24 N            1.4720     1.1950     1.7780 n          1 7UD      -0.398800
     25 C27          4.6190     1.7510    -0.0890 ca         1 7UD      -0.098000
     26 C25          4.2400     2.4900    -2.3460 ca         1 7UD      -0.112000
     27 C23          2.4210     1.6350    -1.0240 ca         1 7UD      -0.098000
     28 C3           2.3090     5.5140     0.0840 ca         1 7UD      -0.160000
     29 C2           1.2390     5.5620    -0.7920 ca         1 7UD      -0.069000
     30 C1           0.1990     4.6440    -0.6920 ca         1 7UD      -0.208000
     31 C            0.2360     3.6650     0.2940 ca         1 7UD       0.175100
     32 O           -0.7010     2.7120     0.4510 os         1 7UD      -0.340100
     33 C9          -3.6690     1.0910    -1.1450 c3         1 7UD      -0.077400
     34 C11         -5.5950    -0.4180    -1.8050 c3         1 7UD      -0.204400
     35 C12         -6.4200    -1.6970    -1.5800 c          1 7UD       0.716000
     36 O1          -6.0650    -2.4690    -0.6680 o          1 7UD      -0.742000
     37 O2          -7.3960    -1.8600    -2.3450 o          1 7UD      -0.742000
     38 H3           3.1670     4.4850     1.7590 ha         1 7UD       0.104000
     39 H5           2.1920     2.7640     2.9370 h1         1 7UD       0.059700
     40 H4           0.4470     2.6160     2.8850 h1         1 7UD       0.059700
     41 H7          -1.3270     2.5270    -1.5160 h1         1 7UD       0.027200
     42 H6          -2.4090     3.4490    -0.4650 h1         1 7UD       0.027200
     43 H8          -1.8200     0.4570    -0.2440 hc         1 7UD       0.058200
     44 H9          -2.8720     1.3480     0.8410 hc         1 7UD       0.058200
     45 H13         -3.7360    -1.0460    -0.9210 hc         1 7UD       0.043200
     46 H12         -4.7860    -0.1830     0.1750 hc         1 7UD       0.043200
     47 H16          2.8510    -0.2770     1.2650 h1         1 7UD       0.050700
     48 H17          3.5100     1.0750     2.1420 h1         1 7UD       0.050700
     49 H19          0.6770    -0.5650    -0.5440 ha         1 7UD       0.121000
     50 H21          0.6130    -4.2770     2.7010 ha         1 7UD       0.113500
     51 H23          2.2110     2.3430    -3.0310 ha         1 7UD       0.109000
     52 H25          6.1520     2.5270    -1.3710 ha         1 7UD       0.109000
     53 H27          0.0770    -5.0050    -2.0450 ha         1 7UD       0.150000
     54 H20          0.7090    -2.8560    -1.3460 ha         1 7UD       0.113500
     55 H28          1.3680    -6.4010     1.8410 h4         1 7UD       0.049100
     56 H29          0.4360    -7.6990    -1.9260 h4         1 7UD       0.050100
     57 H18          0.5630    -1.9780     3.5030 ha         1 7UD       0.121000
     58 H26          5.2960     1.6060     0.7450 ha         1 7UD       0.115500
     59 H24          4.6110     2.9090    -3.2720 ha         1 7UD       0.106000
     60 H22          1.3670     1.4120    -0.9300 ha         1 7UD       0.115500
     61 H2           3.1210     6.2240     0.0010 ha         1 7UD       0.107000
     62 H1           1.2030     6.3160    -1.5690 ha         1 7UD       0.104000
     63 H           -0.6230     4.7040    -1.3930 ha         1 7UD       0.120000
     64 H11         -4.3570     1.9410    -1.0830 hc         1 7UD       0.023200
     65 H10         -3.2990     1.0750    -2.1760 hc         1 7UD       0.023200
     66 H15         -6.2750     0.4400    -1.7520 hc         1 7UD       0.013700
     67 H14         -5.2310    -0.4240    -2.8400 hc         1 7UD       0.013700
@<TRIPOS>BOND
     1     1     2 ar  
     2     1    28 ar  
     3     1    38 1   
     4     2     3 1   
     5     2    31 ar  
     6     3    24 1   
     7     3    39 1   
     8     3    40 1   
     9     4     5 1   
    10     4    32 1   
    11     4    41 1   
    12     4    42 1   
    13     5    33 1   
    14     5    43 1   
    15     5    44 1   
    16     6    33 1   
    17     6    34 1   
    18     6    45 1   
    19     6    46 1   
    20     7    11 1   
    21     7    24 1   
    22     7    47 1   
    23     7    48 1   
    24     8     9 ar  
    25     8    17 1   
    26     8    23 ar  
    27     9    18 ar  
    28     9    49 1   
    29    10    19 ar  
    30    10    23 ar  
    31    10    50 1   
    32    11    25 ar  
    33    11    27 ar  
    34    12    15 1   
    35    12    19 1   
    36    12    20 2   
    37    13    26 ar  
    38    13    27 ar  
    39    13    51 1   
    40    14    25 ar  
    41    14    26 ar  
    42    14    52 1   
    43    15    22 2   
    44    15    53 1   
    45    16    17 2   
    46    17    24 1   
    47    18    19 ar  
    48    18    54 1   
    49    20    21 1   
    50    20    55 1   
    51    21    22 1   
    52    22    56 1   
    53    23    57 1   
    54    25    58 1   
    55    26    59 1   
    56    27    60 1   
    57    28    29 ar  
    58    28    61 1   
    59    29    30 ar  
    60    29    62 1   
    61    30    31 ar  
    62    30    63 1   
    63    31    32 1   
    64    33    64 1   
    65    33    65 1   
    66    34    35 1   
    67    34    66 1   
    68    34    67 1   
    69    35    36 1   
    70    35    37 1   
@<TRIPOS>SUBSTRUCTURE
     1 7UD         1 TEMP              0 ****  ****    0 ROOT
