@<TRIPOS>MOLECULE
7UE
   21    22     1     0     0
SMALL
No Charge or Current Charge


@<TRIPOS>ATOM
      1 C01         -0.3770    -4.1790   -15.5630 ca         1 7UE      -0.098200
      2 C02         -0.6120    -5.5610   -15.4250 ca         1 7UE      -0.065000
      3 C03         -0.6600    -6.3600   -16.5890 ca         1 7UE      -0.169600
      4 C04         -0.4690    -5.7340   -17.8360 ca         1 7UE       0.343900
      5 C05         -0.1980    -3.6490   -16.8520 ca         1 7UE       0.299900
      6 C06          0.2820    -3.2510   -12.3580 cc         1 7UE      -0.201000
      7 C07          0.7730    -3.5250   -13.6070 cd         1 7UE      -0.186500
      8 C08         -1.5090    -3.1690   -13.7490 cd         1 7UE      -0.186500
      9 C09         -1.1120    -3.0330   -12.4440 cc         1 7UE      -0.201000
     10 C10         -0.9060    -7.8420   -16.5260 c          1 7UE       0.720600
     11 N01         -0.2420    -4.4030   -17.9740 nb         1 7UE      -0.695000
     12 N02         -0.3190    -3.3400   -14.4540 na         1 7UE       0.145200
     13 O01         -0.9340    -8.4750   -17.5710 o          1 7UE      -0.709000
     14 O02         -1.0690    -8.3570   -15.4300 o          1 7UE      -0.709000
     15 H1          -0.7540    -5.9980   -14.4380 ha         1 7UE       0.144000
     16 H2          -0.4960    -6.3030   -18.7650 h4         1 7UE       0.038100
     17 H3          -0.0140    -2.5850   -16.9960 h4         1 7UE       0.000100
     18 H6          -2.4880    -3.1520   -14.2130 h4         1 7UE       0.147000
     19 H7          -1.7620    -2.8530   -11.5920 ha         1 7UE       0.117000
     20 H4           0.8490    -3.2610   -11.4300 ha         1 7UE       0.117000
     21 H5           1.7600    -3.8160   -13.9500 h4         1 7UE       0.147000
@<TRIPOS>BOND
     1     1     2 ar  
     2     1     5 ar  
     3     1    12 1   
     4     2     3 ar  
     5     2    15 1   
     6     3     4 ar  
     7     3    10 1   
     8     4    11 ar  
     9     4    16 1   
    10     5    11 ar  
    11     5    17 1   
    12     6     7 2   
    13     6     9 1   
    14     6    20 1   
    15     7    12 1   
    16     7    21 1   
    17     8     9 2   
    18     8    12 1   
    19     8    18 1   
    20     9    19 1   
    21    10    13 1   
    22    10    14 1   
@<TRIPOS>SUBSTRUCTURE
     1 7UE         1 TEMP              0 ****  ****    0 ROOT
