@<TRIPOS>MOLECULE
7UE
   21    22     1     0     0
SMALL
bcc


@<TRIPOS>ATOM
      1 C01         -0.3150    -4.4990   -15.4260 ca         1 7UE      -0.163500
      2 C02         -0.8680    -5.7670   -15.5390 ca         1 7UE      -0.083000
      3 C03         -0.8240    -6.4230   -16.7600 ca         1 7UE      -0.234900
      4 C04         -0.2020    -5.7660   -17.8170 ca         1 7UE       0.409200
      5 C05          0.2640    -3.9280   -16.5550 ca         1 7UE       0.365200
      6 C06          0.2810    -2.4970   -12.5220 cc         1 7UE      -0.219000
      7 C07          0.6700    -2.9980   -13.7340 cd         1 7UE      -0.153800
      8 C08         -1.3630    -3.8130   -13.3010 cd         1 7UE      -0.153800
      9 C09         -1.0140    -3.0120   -12.2480 cc         1 7UE      -0.219000
     10 C10         -1.4170    -7.8220   -16.9270 c          1 7UE       0.931200
     11 N01          0.3270    -4.5520   -17.7210 nb         1 7UE      -0.695000
     12 N02         -0.3350    -3.8010   -14.2070 na         1 7UE       0.043800
     13 O01         -1.2700    -8.3470   -18.0440 o          1 7UE      -0.814300
     14 O02         -1.9870    -8.2970   -15.9290 o          1 7UE      -0.814300
     15 H1          -1.3200    -6.2530   -14.6840 ha         1 7UE       0.162000
     16 H2          -0.1360    -6.2470   -18.7860 h4         1 7UE       0.038100
     17 H3           0.6850    -2.9290   -16.5110 h4         1 7UE       0.000100
     18 H6          -2.2690    -4.3650   -13.4920 h4         1 7UE       0.165000
     19 H7          -1.6220    -2.8120   -11.3810 ha         1 7UE       0.135000
     20 H4           0.8650    -1.8400   -11.8970 ha         1 7UE       0.135000
     21 H5           1.5910    -2.8760   -14.2800 h4         1 7UE       0.165000
@<TRIPOS>BOND
     1     1     2 ar  
     2     1     5 ar  
     3     1    12 1   
     4     2     3 ar  
     5     2    15 1   
     6     3     4 ar  
     7     3    10 1   
     8     4    11 ar  
     9     4    16 1   
    10     5    11 ar  
    11     5    17 1   
    12     6     7 2   
    13     6     9 1   
    14     6    20 1   
    15     7    12 1   
    16     7    21 1   
    17     8     9 2   
    18     8    12 1   
    19     8    18 1   
    20     9    19 1   
    21    10    13 1   
    22    10    14 1   
@<TRIPOS>SUBSTRUCTURE
     1 7UE         1 TEMP              0 ****  ****    0 ROOT
