@<TRIPOS>MOLECULE
7UG
   67    70     1     0     0
SMALL
No Charge or Current Charge


@<TRIPOS>ATOM
      1 C4           0.7740     5.3470     0.4660 ca         1 7UG      -0.066000
      2 C5           0.1840     4.1010     0.7610 ca         1 7UG      -0.137300
      3 C6           0.6840     3.3000     1.9630 c3         1 7UG       0.151300
      4 C7          -2.4030     1.7550    -0.5920 c3         1 7UG       0.159600
      5 C8          -2.7620     0.4050     0.0590 c3         1 7UG      -0.083400
      6 C10         -4.1540    -1.7570    -0.1060 c3         1 7UG      -0.053400
      7 C13          2.6320     1.8690     1.2420 c3         1 7UG       0.149300
      8 C15          0.7470    -0.5260     1.4520 ca         1 7UG      -0.144600
      9 C17          0.9580    -0.6070     0.0610 ca         1 7UG      -0.073000
     10 C20          0.7520    -2.9720     1.5420 ca         1 7UG      -0.107000
     11 C21          3.1180     2.9390     0.2670 ca         1 7UG      -0.090300
     12 C22          1.1250    -4.3600    -0.5490 cc         1 7UG      -0.058000
     13 C24          4.4390     4.9430    -0.1860 ca         1 7UG      -0.111500
     14 C26          3.1220     3.9340    -1.9630 ca         1 7UG      -0.111500
     15 C28          1.3540    -4.5720    -1.9380 cc         1 7UG      -0.115000
     16 O3          -0.1770     0.8870     3.1270 o          1 7UG      -0.573100
     17 C14          0.5640     0.8040     2.1540 c          1 7UG       0.621700
     18 C18          1.0820    -1.8530    -0.5760 ca         1 7UG      -0.107000
     19 C19          0.9880    -3.0610     0.1490 ca         1 7UG       0.009000
     20 C29          1.0380    -5.5450     0.1500 cd         1 7UG      -0.226000
     21 S            1.2350    -6.9540    -0.9070 ss         1 7UG       0.202000
     22 C30          1.4390    -5.8890    -2.3030 cd         1 7UG      -0.252000
     23 C16          0.6250    -1.7260     2.1800 ca         1 7UG      -0.073000
     24 N            1.1930     1.9480     1.6060 n          1 7UG      -0.397800
     25 C27          2.6850     2.9370    -1.0740 ca         1 7UG      -0.096500
     26 C25          3.9990     4.9370    -1.5200 ca         1 7UG      -0.110000
     27 C23          4.0010     3.9470     0.7050 ca         1 7UG      -0.096500
     28 C3           0.3490     6.0900    -0.6460 ca         1 7UG      -0.160000
     29 C2          -0.6730     5.5980    -1.4720 ca         1 7UG      -0.070000
     30 C1          -1.2740     4.3620    -1.1840 ca         1 7UG      -0.209000
     31 C           -0.8510     3.6070    -0.0660 ca         1 7UG       0.174100
     32 O           -1.4270     2.3910     0.2480 os         1 7UG      -0.337100
     33 C9          -3.8020    -0.3980    -0.7520 c3         1 7UG      -0.078400
     34 C11         -5.2040    -2.5600    -0.9120 c3         1 7UG      -0.204400
     35 C12         -5.5230    -3.8870    -0.1980 c          1 7UG       0.717000
     36 O1          -6.4150    -3.8930     0.6360 o          1 7UG      -0.742500
     37 O2          -4.8410    -4.8640    -0.4650 o          1 7UG      -0.742500
     38 H3           1.5730     5.7360     1.0930 ha         1 7UG       0.104000
     39 H5           1.4860     3.8550     2.4680 h1         1 7UG       0.059200
     40 H4          -0.1420     3.2280     2.6810 h1         1 7UG       0.059200
     41 H6          -1.9940     1.5810    -1.5960 h1         1 7UG       0.026200
     42 H7          -3.3050     2.3740    -0.6770 h1         1 7UG       0.026200
     43 H9          -1.8520    -0.1950     0.1660 hc         1 7UG       0.058200
     44 H8          -3.1500     0.5870     1.0680 hc         1 7UG       0.058200
     45 H12         -3.2390    -2.3560    -0.0060 hc         1 7UG       0.043200
     46 H13         -4.5330    -1.5840     0.9090 hc         1 7UG       0.043200
     47 H16          2.8670     0.8880     0.8150 h1         1 7UG       0.049700
     48 H17          3.2130     1.9440     2.1700 h1         1 7UG       0.049700
     49 H19          0.9990     0.2970    -0.5400 ha         1 7UG       0.121500
     50 H21          0.6580    -3.8610     2.1560 ha         1 7UG       0.115000
     51 H23          5.1180     5.7200     0.1590 ha         1 7UG       0.109000
     52 H25          2.7770     3.9300    -2.9950 ha         1 7UG       0.109000
     53 H27          1.4530    -3.7620    -2.6530 ha         1 7UG       0.133000
     54 H20          1.2430    -1.8600    -1.6490 ha         1 7UG       0.115000
     55 H28          0.8730    -5.7160     1.2050 h4         1 7UG       0.155000
     56 H29          1.6070    -6.3060    -3.2880 h4         1 7UG       0.146000
     57 H18          0.4380    -1.6960     3.2510 ha         1 7UG       0.121500
     58 H26          1.9980     2.1730    -1.4270 ha         1 7UG       0.115000
     59 H24          4.3360     5.7100    -2.2080 ha         1 7UG       0.107000
     60 H22          4.3440     3.9640     1.7370 ha         1 7UG       0.115000
     61 H2           0.8150     7.0460    -0.8700 ha         1 7UG       0.107000
     62 H1          -0.9990     6.1750    -2.3350 ha         1 7UG       0.104000
     63 H           -2.0660     4.0080    -1.8370 ha         1 7UG       0.120000
     64 H11         -4.7150     0.2000    -0.8570 hc         1 7UG       0.023200
     65 H10         -3.4130    -0.5700    -1.7640 hc         1 7UG       0.023200
     66 H14         -6.0970    -1.9240    -0.9560 hc         1 7UG       0.013700
     67 H15         -4.7490    -2.7500    -1.8920 hc         1 7UG       0.013700
@<TRIPOS>BOND
     1     1     2 ar  
     2     1    28 ar  
     3     1    38 1   
     4     2     3 1   
     5     2    31 ar  
     6     3    24 1   
     7     3    39 1   
     8     3    40 1   
     9     4     5 1   
    10     4    32 1   
    11     4    41 1   
    12     4    42 1   
    13     5    33 1   
    14     5    43 1   
    15     5    44 1   
    16     6    33 1   
    17     6    34 1   
    18     6    45 1   
    19     6    46 1   
    20     7    11 1   
    21     7    24 1   
    22     7    47 1   
    23     7    48 1   
    24     8     9 ar  
    25     8    17 1   
    26     8    23 ar  
    27     9    18 ar  
    28     9    49 1   
    29    10    19 ar  
    30    10    23 ar  
    31    10    50 1   
    32    11    25 ar  
    33    11    27 ar  
    34    12    15 1   
    35    12    19 1   
    36    12    20 2   
    37    13    26 ar  
    38    13    27 ar  
    39    13    51 1   
    40    14    25 ar  
    41    14    26 ar  
    42    14    52 1   
    43    15    22 2   
    44    15    53 1   
    45    16    17 2   
    46    17    24 1   
    47    18    19 ar  
    48    18    54 1   
    49    20    21 1   
    50    20    55 1   
    51    21    22 1   
    52    22    56 1   
    53    23    57 1   
    54    25    58 1   
    55    26    59 1   
    56    27    60 1   
    57    28    29 ar  
    58    28    61 1   
    59    29    30 ar  
    60    29    62 1   
    61    30    31 ar  
    62    30    63 1   
    63    31    32 1   
    64    33    64 1   
    65    33    65 1   
    66    34    35 1   
    67    34    66 1   
    68    34    67 1   
    69    35    36 1   
    70    35    37 1   
@<TRIPOS>SUBSTRUCTURE
     1 7UG         1 TEMP              0 ****  ****    0 ROOT
