@<TRIPOS>MOLECULE
7UG
   67    70     1     0     0
SMALL
abcg2


@<TRIPOS>ATOM
      1 C4           0.8110     5.2340     0.9750 ca         1 7UG      -0.066000
      2 C5           0.1650     4.0200     1.1370 ca         1 7UG      -0.137300
      3 C6           0.6020     3.0610     2.2140 c3         1 7UG       0.151300
      4 C7          -2.4850     2.0640    -0.4150 c3         1 7UG       0.159600
      5 C8          -2.9070     0.6640    -0.0230 c3         1 7UG      -0.083400
      6 C10         -4.4740    -1.2590    -0.5870 c3         1 7UG      -0.053400
      7 C13          2.4660     1.7960     1.2340 c3         1 7UG       0.149300
      8 C15          0.9280    -0.6540     1.5060 ca         1 7UG      -0.144600
      9 C17          1.0240    -0.8730     0.1370 ca         1 7UG      -0.073000
     10 C20          1.5230    -2.9610     1.8800 ca         1 7UG      -0.107000
     11 C21          2.7030     2.6180    -0.0090 ca         1 7UG      -0.090300
     12 C22          1.9760    -4.5120    -0.0230 cc         1 7UG      -0.058000
     13 C24          4.1090     4.1650    -1.2230 ca         1 7UG      -0.111500
     14 C26          2.0890     3.3500    -2.2250 ca         1 7UG      -0.111500
     15 C28          2.6060    -4.7300    -1.2880 cc         1 7UG      -0.115000
     16 O3          -0.4900     0.6250     2.8540 o          1 7UG      -0.573100
     17 C14          0.4560     0.6440     2.0830 c          1 7UG       0.621700
     18 C18          1.3560    -2.1240    -0.3560 ca         1 7UG      -0.107000
     19 C19          1.6180    -3.1890     0.5050 ca         1 7UG       0.009000
     20 C29          1.7470    -5.6930     0.6310 cd         1 7UG      -0.226000
     21 S            2.2870    -7.0420    -0.2680 ss         1 7UG       0.202000
     22 C30          2.8360    -6.0430    -1.5480 cd         1 7UG      -0.252000
     23 C16          1.1630    -1.7190     2.3730 ca         1 7UG      -0.073000
     24 N            1.0940     1.7830     1.7120 n          1 7UG      -0.397800
     25 C27          1.8330     2.5920    -1.0940 ca         1 7UG      -0.096500
     26 C25          3.2300     4.1390    -2.2960 ca         1 7UG      -0.110000
     27 C23          3.8410     3.4120    -0.0870 ca         1 7UG      -0.096500
     28 C3           0.4310     6.1370    -0.0100 ca         1 7UG      -0.160000
     29 C2          -0.6210     5.8120    -0.8490 ca         1 7UG      -0.070000
     30 C1          -1.2910     4.6020    -0.7070 ca         1 7UG      -0.209000
     31 C           -0.9030     3.7060     0.2840 ca         1 7UG       0.174100
     32 O           -1.4830     2.5080     0.4830 os         1 7UG      -0.337100
     33 C9          -3.9900     0.1380    -0.9580 c3         1 7UG      -0.078400
     34 C11         -5.5480    -1.7690    -1.5330 c3         1 7UG      -0.204400
     35 C12         -6.1070    -3.1710    -1.2330 c          1 7UG       0.717000
     36 O1          -5.6650    -3.7750    -0.2360 o          1 7UG      -0.742500
     37 O2          -6.9740    -3.5940    -2.0280 o          1 7UG      -0.742500
     38 H3           1.6450     5.4700     1.6270 ha         1 7UG       0.104000
     39 H5           1.3990     3.5310     2.7970 h1         1 7UG       0.059200
     40 H4          -0.2170     2.8640     2.9040 h1         1 7UG       0.059200
     41 H6          -2.1020     2.0700    -1.4430 h1         1 7UG       0.026200
     42 H7          -3.3490     2.7390    -0.3860 h1         1 7UG       0.026200
     43 H9          -2.0400    -0.0030    -0.0490 hc         1 7UG       0.058200
     44 H8          -3.2730     0.6670     1.0080 hc         1 7UG       0.058200
     45 H12         -3.6250    -1.9480    -0.5840 hc         1 7UG       0.043200
     46 H13         -4.8550    -1.2470     0.4380 hc         1 7UG       0.043200
     47 H16          2.7950     0.7710     1.0610 h1         1 7UG       0.049700
     48 H17          3.1040     2.1840     2.0350 h1         1 7UG       0.049700
     49 H19          0.8240    -0.0730    -0.5630 ha         1 7UG       0.121500
     50 H21          1.7410    -3.7590     2.5780 ha         1 7UG       0.115000
     51 H23          5.0000     4.7800    -1.2620 ha         1 7UG       0.109000
     52 H25          1.3890     3.3320    -3.0500 ha         1 7UG       0.109000
     53 H27          2.8930    -3.9380    -1.9660 ha         1 7UG       0.133000
     54 H20          1.3950    -2.2690    -1.4280 ha         1 7UG       0.115000
     55 H28          1.2670    -5.8400     1.5860 h4         1 7UG       0.155000
     56 H29          3.3050    -6.4740    -2.4180 h4         1 7UG       0.146000
     57 H18          1.0870    -1.5740     3.4430 ha         1 7UG       0.121500
     58 H26          0.9260     2.0010    -1.0540 ha         1 7UG       0.115000
     59 H24          3.4290     4.7340    -3.1780 ha         1 7UG       0.107000
     60 H22          4.5250     3.4500     0.7540 ha         1 7UG       0.115000
     61 H2           0.9540     7.0770    -0.1210 ha         1 7UG       0.107000
     62 H1          -0.9350     6.4990    -1.6240 ha         1 7UG       0.104000
     63 H           -2.1100     4.3770    -1.3780 ha         1 7UG       0.120000
     64 H11         -4.8400     0.8290    -0.9560 hc         1 7UG       0.023200
     65 H10         -3.6110     0.1310    -1.9860 hc         1 7UG       0.023200
     66 H14         -6.3880    -1.0640    -1.5480 hc         1 7UG       0.013700
     67 H15         -5.1640    -1.7680    -2.5600 hc         1 7UG       0.013700
@<TRIPOS>BOND
     1     1     2 ar  
     2     1    28 ar  
     3     1    38 1   
     4     2     3 1   
     5     2    31 ar  
     6     3    24 1   
     7     3    39 1   
     8     3    40 1   
     9     4     5 1   
    10     4    32 1   
    11     4    41 1   
    12     4    42 1   
    13     5    33 1   
    14     5    43 1   
    15     5    44 1   
    16     6    33 1   
    17     6    34 1   
    18     6    45 1   
    19     6    46 1   
    20     7    11 1   
    21     7    24 1   
    22     7    47 1   
    23     7    48 1   
    24     8     9 ar  
    25     8    17 1   
    26     8    23 ar  
    27     9    18 ar  
    28     9    49 1   
    29    10    19 ar  
    30    10    23 ar  
    31    10    50 1   
    32    11    25 ar  
    33    11    27 ar  
    34    12    15 1   
    35    12    19 1   
    36    12    20 2   
    37    13    26 ar  
    38    13    27 ar  
    39    13    51 1   
    40    14    25 ar  
    41    14    26 ar  
    42    14    52 1   
    43    15    22 2   
    44    15    53 1   
    45    16    17 2   
    46    17    24 1   
    47    18    19 ar  
    48    18    54 1   
    49    20    21 1   
    50    20    55 1   
    51    21    22 1   
    52    22    56 1   
    53    23    57 1   
    54    25    58 1   
    55    26    59 1   
    56    27    60 1   
    57    28    29 ar  
    58    28    61 1   
    59    29    30 ar  
    60    29    62 1   
    61    30    31 ar  
    62    30    63 1   
    63    31    32 1   
    64    33    64 1   
    65    33    65 1   
    66    34    35 1   
    67    34    66 1   
    68    34    67 1   
    69    35    36 1   
    70    35    37 1   
@<TRIPOS>SUBSTRUCTURE
     1 7UG         1 TEMP              0 ****  ****    0 ROOT
