@<TRIPOS>MOLECULE
7UH
   33    35     1     0     0
SMALL
No Charge or Current Charge


@<TRIPOS>ATOM
      1 C1           6.4880    19.2580    57.5490 cc         1 7UH       0.443900
      2 C2           5.4920    18.4220    57.9070 cd         1 7UH      -0.356600
      3 O1           8.1160    17.3660    55.0660 o          1 7UH      -0.553000
      4 C3           5.3140    17.1080    57.2860 c          1 7UH       0.636600
      5 C4           7.3030    17.6860    55.9230 c          1 7UH       0.616000
      6 O2           2.7490    17.2350    61.5160 os         1 7UH      -0.457500
      7 N            7.3960    18.9300    56.5700 n          1 7UH      -0.358300
      8 C            8.4950    19.8510    56.1860 c3         1 7UH       0.102300
      9 O            4.4270    16.3360    57.6210 o          1 7UH      -0.546000
     10 C10          3.8870    18.9880    62.6290 c5         1 7UH       0.118100
     11 C5           6.1640    15.5050    55.5950 c3         1 7UH       0.085300
     12 C6           5.4450    20.3010    59.1020 cd         1 7UH       0.465400
     13 C7           3.6130    18.6070    59.6430 c3         1 7UH       0.026600
     14 C8           3.9340    17.5960    60.7800 c5         1 7UH       0.364300
     15 C9           2.4900    18.3210    62.4390 c5         1 7UH       0.118100
     16 N1           6.2560    16.8190    56.2900 n          1 7UH      -0.372400
     17 N2           4.7970    19.0870    58.9070 na         1 7UH      -0.106500
     18 N3           6.4770    20.4130    58.2690 nc         1 7UH      -0.708000
     19 O3           4.7640    18.1920    61.7980 os         1 7UH      -0.457500
     20 H1           8.3340    20.8570    56.5900 h1         1 7UH       0.058700
     21 H2           9.4480    19.4640    56.5690 h1         1 7UH       0.058700
     22 H3           8.5550    19.9290    55.0930 h1         1 7UH       0.058700
     23 H5           3.8920    20.0310    62.2820 h1         1 7UH       0.061950
     24 H6           5.1500    15.0900    55.6570 h1         1 7UH       0.057700
     25 H7           6.4100    15.6150    54.5320 h1         1 7UH       0.057700
     26 H8           6.8670    14.7980    56.0530 h1         1 7UH       0.057700
     27 H9           5.1170    21.0250    59.8380 h5         1 7UH       0.062100
     28 H10          3.0780    19.4740    60.0460 h1         1 7UH       0.081700
     29 H11          2.9390    18.1170    58.9310 h1         1 7UH       0.081700
     30 H12          4.4170    16.7050    60.3560 h2         1 7UH       0.114700
     31 H13          1.7620    19.0170    61.9990 h1         1 7UH       0.061950
     32 H14          2.0800    17.9220    63.3760 h1         1 7UH       0.061950
     33 H4           4.2340    18.9580    63.6700 h1         1 7UH       0.061950
@<TRIPOS>BOND
     1     1     2 2   
     2     1     7 1   
     3     1    18 1   
     4     2     4 1   
     5     2    17 1   
     6     3     5 2   
     7     4     9 2   
     8     4    16 1   
     9     5     7 1   
    10     5    16 1   
    11     6    14 1   
    12     6    15 1   
    13     7     8 1   
    14     8    20 1   
    15     8    21 1   
    16     8    22 1   
    17    10    15 1   
    18    10    19 1   
    19    10    23 1   
    20    10    33 1   
    21    11    16 1   
    22    11    24 1   
    23    11    25 1   
    24    11    26 1   
    25    12    17 1   
    26    12    18 2   
    27    12    27 1   
    28    13    14 1   
    29    13    17 1   
    30    13    28 1   
    31    13    29 1   
    32    14    19 1   
    33    14    30 1   
    34    15    31 1   
    35    15    32 1   
@<TRIPOS>SUBSTRUCTURE
     1 7UH         1 TEMP              0 ****  ****    0 ROOT
