@<TRIPOS>MOLECULE
7UH
   33    35     1     0     0
SMALL
bcc


@<TRIPOS>ATOM
      1 C1           6.4060    19.2700    57.5150 cc         1 7UH       0.509200
      2 C2           5.3750    18.4280    57.8400 cd         1 7UH      -0.371200
      3 O1           8.1670    17.3050    55.2470 o          1 7UH      -0.628500
      4 C3           5.2390    17.1200    57.2950 c          1 7UH       0.779100
      5 C4           7.3240    17.6640    56.0460 c          1 7UH       0.825500
      6 O2           2.7210    17.4540    61.3990 os         1 7UH      -0.411100
      7 N            7.3760    18.9050    56.6270 n          1 7UH      -0.425300
      8 C            8.4690    19.7960    56.2800 c3         1 7UH       0.102300
      9 O            4.3500    16.3260    57.5510 o          1 7UH      -0.621500
     10 C10          4.1250    18.7330    62.6900 c5         1 7UH       0.094900
     11 C5           6.2890    15.5100    55.7680 c3         1 7UH       0.085300
     12 C6           5.2160    20.3180    58.8910 cd         1 7UH       0.465400
     13 C7           3.4390    18.6870    59.4620 c3         1 7UH      -0.002700
     14 C8           3.8360    17.7720    60.6260 c5         1 7UH       0.317900
     15 C9           2.6560    18.4310    62.4260 c5         1 7UH       0.094900
     16 N1           6.2740    16.8230    56.4030 n          1 7UH      -0.506400
     17 N2           4.6030    19.1400    58.7330 na         1 7UH      -0.127900
     18 N3           6.3110    20.4430    58.1630 nc         1 7UH      -0.708000
     19 O3           4.7600    18.4190    61.4590 os         1 7UH      -0.411100
     20 H1           8.3620    20.7110    56.8520 h1         1 7UH       0.058700
     21 H2           9.4280    19.3410    56.5220 h1         1 7UH       0.058700
     22 H3           8.4480    20.0410    55.2200 h1         1 7UH       0.058700
     23 H5           4.2960    19.7790    62.9460 h1         1 7UH       0.061950
     24 H6           5.4320    14.9470    56.1150 h1         1 7UH       0.057700
     25 H7           6.2320    15.6060    54.6860 h1         1 7UH       0.057700
     26 H8           7.1950    14.9690    56.0290 h1         1 7UH       0.057700
     27 H9           4.8240    21.0790    59.5500 h5         1 7UH       0.062100
     28 H10          2.9180    19.5720    59.8280 h1         1 7UH       0.081700
     29 H11          2.7700    18.1600    58.7840 h1         1 7UH       0.081700
     30 H12          4.2690    16.8430    60.2400 h2         1 7UH       0.114700
     31 H13          2.1100    19.3220    62.1000 h1         1 7UH       0.061950
     32 H14          2.1410    18.0050    63.2860 h1         1 7UH       0.061950
     33 H4           4.5310    18.1080    63.4900 h1         1 7UH       0.061950
@<TRIPOS>BOND
     1     1     2 2   
     2     1     7 1   
     3     1    18 1   
     4     2     4 1   
     5     2    17 1   
     6     3     5 2   
     7     4     9 2   
     8     4    16 1   
     9     5     7 1   
    10     5    16 1   
    11     6    14 1   
    12     6    15 1   
    13     7     8 1   
    14     8    20 1   
    15     8    21 1   
    16     8    22 1   
    17    10    15 1   
    18    10    19 1   
    19    10    23 1   
    20    10    33 1   
    21    11    16 1   
    22    11    24 1   
    23    11    25 1   
    24    11    26 1   
    25    12    17 1   
    26    12    18 2   
    27    12    27 1   
    28    13    14 1   
    29    13    17 1   
    30    13    28 1   
    31    13    29 1   
    32    14    19 1   
    33    14    30 1   
    34    15    31 1   
    35    15    32 1   
@<TRIPOS>SUBSTRUCTURE
     1 7UH         1 TEMP              0 ****  ****    0 ROOT
