@<TRIPOS>MOLECULE
7UI
   48    51     1     0     0
SMALL
No Charge or Current Charge


@<TRIPOS>ATOM
      1 N1          -2.0440     6.0810   -47.2770 n          1 7UI      -0.155200
      2 C4          -3.8000     6.0890   -44.9920 ca         1 7UI       0.167000
      3 C5          -4.2440     6.5450   -46.2340 ca         1 7UI      -0.322000
      4 C6          -3.3680     6.5380   -47.3940 cc         1 7UI       0.066600
      5 C8          -5.8510     6.6030   -44.0970 ca         1 7UI       0.410900
      6 C10         -5.5610     7.0320   -46.3190 ca         1 7UI       0.213900
      7 N12         -6.6960     6.6460   -42.9950 nu         1 7UI      -0.916100
      8 C13         -6.4750     6.0130   -41.6570 c3         1 7UI       0.167800
      9 C15          0.1100     6.5060   -48.4440 ca         1 7UI      -0.049500
     10 C17          0.3180     6.2390   -50.8580 ca         1 7UI       0.160100
     11 C21          0.6410     6.0080   -53.2950 c3         1 7UI       0.145900
     12 C22         -1.9790     5.0440   -43.5870 ca         1 7UI       0.014200
     13 C24         -2.1490     3.4040   -41.7860 ca         1 7UI      -0.092500
     14 C26         -0.4710     5.1640   -41.6700 ca         1 7UI      -0.092500
     15 C14         -1.2290     6.0540   -48.4800 ca         1 7UI      -0.045400
     16 C16          0.8760     6.5810   -49.6200 ca         1 7UI      -0.168500
     17 C18         -1.0300     5.8310   -50.9170 ca         1 7UI      -0.168500
     18 C19         -1.7980     5.7580   -49.7420 ca         1 7UI      -0.049500
     19 C2          -1.5430     5.5490   -46.0460 c          1 7UI       0.566200
     20 C23         -2.5890     3.9070   -43.0220 ca         1 7UI      -0.084500
     21 C25         -1.0900     4.0340   -41.1110 ca         1 7UI      -0.018900
     22 C27         -0.9150     5.6680   -42.9060 ca         1 7UI      -0.084500
     23 C29         -6.7720     4.4820   -41.6050 c3         1 7UI       0.276000
     24 C3          -2.4470     5.5760   -44.8690 cc         1 7UI      -0.222400
     25 F30         -6.5860     4.0080   -40.3530 f          1 7UI      -0.113000
     26 F31         -5.9620     3.7830   -42.4330 f          1 7UI      -0.113000
     27 F32         -8.0530     4.2210   -41.9580 f          1 7UI      -0.113000
     28 N7          -4.6080     6.1240   -43.9140 nb         1 7UI      -0.272000
     29 N9          -6.3730     7.0610   -45.2450 nb         1 7UI      -0.233000
     30 O11         -0.4200     5.0630   -45.9640 o          1 7UI      -0.520000
     31 Br28        -0.4910     3.3520   -39.4290 br         1 7UI      -0.113100
     32 H61         -3.5940     6.9470   -48.3730 h4         1 7UI       0.209000
     33 H101        -5.9720     7.4070   -47.2550 h4         1 7UI       0.021100
     34 H121        -7.6310     7.0090   -43.1950 hn         1 7UI       0.521000
     35 H131        -5.4440     6.1820   -41.3150 h1         1 7UI       0.098700
     36 H132        -7.1290     6.4910   -40.9130 h1         1 7UI       0.098700
     37 H151         0.5620     6.8190   -47.5060 ha         1 7UI       0.128000
     38 H212         1.4380     6.1480   -54.0350 h1         1 7UI       0.045033
     39 H211         0.3130     4.9610   -53.3430 h1         1 7UI       0.045033
     40 H213        -0.2000     6.6550   -53.5750 h1         1 7UI       0.045033
     41 H241        -2.6270     2.5280   -41.3540 ha         1 7UI       0.125500
     42 H261         0.3490     5.6520   -41.1480 ha         1 7UI       0.125500
     43 H161         1.9080     6.9200   -49.5710 ha         1 7UI       0.131000
     44 H181        -1.4990     5.5700   -51.8620 ha         1 7UI       0.131000
     45 H191        -2.8330     5.4290   -49.8180 ha         1 7UI       0.128000
     46 H231        -3.4070     3.4160   -43.5430 ha         1 7UI       0.120000
     47 H271        -0.4360     6.5450   -43.3340 ha         1 7UI       0.120000
     48 O20          1.1200     6.3330   -51.9770 os         1 7UI      -0.335100
@<TRIPOS>BOND
     1     1     4 1   
     2     1    15 1   
     3     1    19 1   
     4     2     3 ar  
     5     2    24 2   
     6     2    28 ar  
     7     3     4 2   
     8     3     6 ar  
     9     4    32 1   
    10     5     7 1   
    11     5    28 ar  
    12     5    29 ar  
    13     6    29 ar  
    14     6    33 1   
    15     7     8 1   
    16     7    34 1   
    17     8    23 1   
    18     8    35 1   
    19     8    36 1   
    20     9    15 ar  
    21     9    16 ar  
    22     9    37 1   
    23    10    16 ar  
    24    10    17 ar  
    25    10    48 1   
    26    11    38 1   
    27    11    39 1   
    28    11    40 1   
    29    11    48 1   
    30    12    20 ar  
    31    12    22 ar  
    32    12    24 1   
    33    13    20 ar  
    34    13    21 ar  
    35    13    41 1   
    36    14    21 ar  
    37    14    22 ar  
    38    14    42 1   
    39    15    18 ar  
    40    16    43 1   
    41    17    18 ar  
    42    17    44 1   
    43    18    45 1   
    44    19    24 1   
    45    19    30 2   
    46    20    46 1   
    47    21    31 1   
    48    22    47 1   
    49    23    25 1   
    50    23    26 1   
    51    23    27 1   
@<TRIPOS>SUBSTRUCTURE
     1 7UI         1 TEMP              0 ****  ****    0 ROOT
