@<TRIPOS>MOLECULE
7UI
   48    51     1     0     0
SMALL
abcg2


@<TRIPOS>ATOM
      1 N1          -2.1670     6.2110   -47.2600 n          1 7UI      -0.155200
      2 C4          -3.7820     6.0790   -45.0140 ca         1 7UI       0.167000
      3 C5          -4.2300     6.6760   -46.2330 ca         1 7UI      -0.322000
      4 C6          -3.3940     6.7230   -47.3180 cc         1 7UI       0.066600
      5 C8          -5.8030     6.5890   -44.0940 ca         1 7UI       0.410900
      6 C10         -5.5390     7.2180   -46.2480 ca         1 7UI       0.213900
      7 N12         -6.6550     6.5950   -43.0550 nu         1 7UI      -0.916100
      8 C13         -6.3570     6.0530   -41.7640 c3         1 7UI       0.167800
      9 C15         -0.2480     7.1130   -48.4770 ca         1 7UI      -0.049500
     10 C17          0.2150     6.3820   -50.7280 ca         1 7UI       0.160100
     11 C21          0.7580     5.7440   -52.9470 c3         1 7UI       0.145900
     12 C22         -1.9790     4.9260   -43.7240 ca         1 7UI       0.014200
     13 C24         -2.1470     3.2750   -41.9570 ca         1 7UI      -0.092500
     14 C26         -0.3050     4.8330   -41.9730 ca         1 7UI      -0.092500
     15 C14         -1.3410     6.2560   -48.4280 ca         1 7UI      -0.045400
     16 C16          0.5250     7.1750   -49.6180 ca         1 7UI      -0.168500
     17 C18         -0.8810     5.5240   -50.6730 ca         1 7UI      -0.168500
     18 C19         -1.6500     5.4640   -49.5170 ca         1 7UI      -0.049500
     19 C2          -1.6370     5.5860   -46.0930 c          1 7UI       0.566200
     20 C23         -2.6360     3.8570   -43.1170 ca         1 7UI      -0.084500
     21 C25         -0.9810     3.7690   -41.3930 ca         1 7UI      -0.018900
     22 C27         -0.8090     5.4000   -43.1330 ca         1 7UI      -0.084500
     23 C29         -6.8940     4.6460   -41.6040 c3         1 7UI       0.276000
     24 C3          -2.5020     5.5480   -44.9540 cc         1 7UI      -0.222400
     25 F30         -6.6000     4.1610   -40.3910 f          1 7UI      -0.113000
     26 F31         -6.3920     3.7970   -42.5090 f          1 7UI      -0.113000
     27 F32         -8.2270     4.6030   -41.7360 f          1 7UI      -0.113000
     28 N7          -4.6160     6.0580   -43.9500 nb         1 7UI      -0.272000
     29 N9          -6.3220     7.1850   -45.2210 nb         1 7UI      -0.233000
     30 O11         -0.5070     5.1250   -46.1520 o          1 7UI      -0.520000
     31 BR28        -0.2970     2.9830   -39.8170 br         1 7UI      -0.113100
     32 H61         -3.6960     7.1780   -48.2530 h4         1 7UI       0.209000
     33 H101        -5.9150     7.6840   -47.1550 h4         1 7UI       0.021100
     34 H121        -7.5490     7.0360   -43.2030 hn         1 7UI       0.521000
     35 H131        -5.2790     6.0410   -41.6050 h1         1 7UI       0.098700
     36 H132        -6.8050     6.6820   -40.9940 h1         1 7UI       0.098700
     37 H151        -0.0060     7.7410   -47.6290 ha         1 7UI       0.128000
     38 H212         1.5210     6.0080   -53.6750 h1         1 7UI       0.045033
     39 H211         0.8200     4.6720   -52.7440 h1         1 7UI       0.045033
     40 H213        -0.2250     5.9670   -53.3710 h1         1 7UI       0.045033
     41 H241        -2.6750     2.4420   -41.5100 ha         1 7UI       0.125500
     42 H261         0.6030     5.2240   -41.5320 ha         1 7UI       0.125500
     43 H161         1.3750     7.8440   -49.6630 ha         1 7UI       0.131000
     44 H181        -1.1530     4.8950   -51.5090 ha         1 7UI       0.131000
     45 H191        -2.4970     4.7910   -49.4730 ha         1 7UI       0.128000
     46 H231        -3.5420     3.4640   -43.5570 ha         1 7UI       0.120000
     47 H271        -0.2810     6.2370   -43.5720 ha         1 7UI       0.120000
     48 O20          1.0200     6.5170   -51.7920 os         1 7UI      -0.335100
@<TRIPOS>BOND
     1     1     4 1   
     2     1    15 1   
     3     1    19 1   
     4     2     3 ar  
     5     2    24 2   
     6     2    28 ar  
     7     3     4 2   
     8     3     6 ar  
     9     4    32 1   
    10     5     7 1   
    11     5    28 ar  
    12     5    29 ar  
    13     6    29 ar  
    14     6    33 1   
    15     7     8 1   
    16     7    34 1   
    17     8    23 1   
    18     8    35 1   
    19     8    36 1   
    20     9    15 ar  
    21     9    16 ar  
    22     9    37 1   
    23    10    16 ar  
    24    10    17 ar  
    25    10    48 1   
    26    11    38 1   
    27    11    39 1   
    28    11    40 1   
    29    11    48 1   
    30    12    20 ar  
    31    12    22 ar  
    32    12    24 1   
    33    13    20 ar  
    34    13    21 ar  
    35    13    41 1   
    36    14    21 ar  
    37    14    22 ar  
    38    14    42 1   
    39    15    18 ar  
    40    16    43 1   
    41    17    18 ar  
    42    17    44 1   
    43    18    45 1   
    44    19    24 1   
    45    19    30 2   
    46    20    46 1   
    47    21    31 1   
    48    22    47 1   
    49    23    25 1   
    50    23    26 1   
    51    23    27 1   
@<TRIPOS>SUBSTRUCTURE
     1 7UI         1 TEMP              0 ****  ****    0 ROOT
