@<TRIPOS>MOLECULE
7UJ
   66    68     1     0     0
SMALL
No Charge or Current Charge


@<TRIPOS>ATOM
      1 C4           2.0590     5.5230     0.2270 ca         1 7UJ      -0.076000
      2 C5           1.8460     4.1970    -0.2050 ca         1 7UJ      -0.140300
      3 C6           1.0490     3.9490    -1.4870 c3         1 7UJ       0.152300
      4 C7           2.6230     0.6820     0.8410 c3         1 7UJ       0.158600
      5 C8           2.1940    -0.5700     0.0520 c3         1 7UJ      -0.085400
      6 C10          2.1580    -3.1440    -0.0440 c3         1 7UJ      -0.053400
      7 C13         -1.4430     3.7750    -0.9530 c3         1 7UJ       0.122700
      8 C15         -1.9980     4.5920    -2.1420 c3         1 7UJ      -0.104600
      9 C17         -1.0770     0.7520    -1.2500 ca         1 7UJ      -0.138600
     10 C20         -2.3120    -1.3510    -1.4430 ca         1 7UJ      -0.105000
     11 C21         -2.6390    -1.3300    -0.0660 cp         1 7UJ      -0.016000
     12 C22         -2.1530    -0.2480     0.7080 ca         1 7UJ      -0.105000
     13 C24         -3.2090    -2.8630     1.8790 ca         1 7UJ      -0.094500
     14 C26         -5.2780    -4.0690     0.4160 ca         1 7UJ      -0.113500
     15 C28         -3.9780    -3.8860     2.4600 ca         1 7UJ      -0.113500
     16 O3           0.5190     1.5270    -2.8380 o          1 7UJ      -0.587100
     17 C16         -0.1970     1.8110    -1.8840 c          1 7UJ       0.624700
     18 C19         -1.5370    -0.3330    -2.0250 ca         1 7UJ      -0.077000
     19 C23         -3.4580    -2.4210     0.5540 cp         1 7UJ      -0.036000
     20 C25         -4.5080    -3.0460    -0.1650 ca         1 7UJ      -0.094500
     21 C27         -5.0130    -4.4900     1.7290 ca         1 7UJ      -0.111000
     22 C18         -1.3820     0.7730     0.1290 ca         1 7UJ      -0.077000
     23 N           -0.1580     3.0960    -1.2900 n          1 7UJ      -0.400800
     24 C14         -1.3550     4.6490     0.3180 c3         1 7UJ      -0.104600
     25 C3           2.7790     5.7820     1.4030 ca         1 7UJ      -0.165000
     26 C2           3.3000     4.7210     2.1570 ca         1 7UJ      -0.071000
     27 C1           3.1040     3.3970     1.7330 ca         1 7UJ      -0.208000
     28 C            2.3800     3.1260     0.5490 ca         1 7UJ       0.176100
     29 O            2.1840     1.8330     0.1020 os         1 7UJ      -0.337100
     30 C9           2.6070    -1.8890     0.7390 c3         1 7UJ      -0.077400
     31 C11          2.5770    -4.4690     0.6390 c3         1 7UJ      -0.204400
     32 C12          2.1220    -5.6710    -0.2080 c          1 7UJ       0.717000
     33 O1           1.0090    -6.1330    -0.0040 o          1 7UJ      -0.742000
     34 O2           2.8760    -6.0840    -1.0760 o          1 7UJ      -0.742000
     35 H3           1.6600     6.3560    -0.3480 ha         1 7UJ       0.104000
     36 H4           0.7470     4.9110    -1.9180 h1         1 7UJ       0.061700
     37 H5           1.7290     3.4910    -2.2170 h1         1 7UJ       0.061700
     38 H7           2.1610     0.6620     1.8370 h1         1 7UJ       0.028200
     39 H6           3.7140     0.6870     0.9550 h1         1 7UJ       0.028200
     40 H8           1.1060    -0.5610    -0.0710 hc         1 7UJ       0.058200
     41 H9           2.6340    -0.5290    -0.9520 hc         1 7UJ       0.058200
     42 H13          1.0670    -3.1260    -0.1580 hc         1 7UJ       0.042200
     43 H12          2.5850    -3.1080    -1.0540 hc         1 7UJ       0.042200
     44 H16         -2.1980     3.0080    -0.7460 h1         1 7UJ       0.060700
     45 H20         -2.0730     3.9630    -3.0370 hc         1 7UJ       0.039033
     46 H21         -3.0010     4.9690    -1.9110 hc         1 7UJ       0.039033
     47 H22         -1.3600     5.4520    -2.3760 hc         1 7UJ       0.039033
     48 H25         -2.6450    -2.1760    -2.0670 ha         1 7UJ       0.116000
     49 H26         -2.3800    -0.1950     1.7700 ha         1 7UJ       0.116000
     50 H31         -3.7680    -4.2130     3.4760 ha         1 7UJ       0.111000
     51 H24         -1.2950    -0.3890    -3.0840 ha         1 7UJ       0.121500
     52 H28         -4.7390    -2.7270    -1.1790 ha         1 7UJ       0.119000
     53 H30         -5.6090    -5.2810     2.1780 ha         1 7UJ       0.106000
     54 H23         -1.0010     1.5680     0.7660 ha         1 7UJ       0.121500
     55 H18         -0.7450     5.5420     0.1470 hc         1 7UJ       0.039033
     56 H17         -2.3550     4.9800     0.6230 hc         1 7UJ       0.039033
     57 H19         -0.9190     4.0820     1.1480 hc         1 7UJ       0.039033
     58 H2           2.9340     6.8080     1.7300 ha         1 7UJ       0.107000
     59 H1           3.8590     4.9250     3.0690 ha         1 7UJ       0.105000
     60 H            3.5250     2.5960     2.3330 ha         1 7UJ       0.121000
     61 H10          3.6980    -1.9070     0.8570 hc         1 7UJ       0.023700
     62 H11          2.1740    -1.9200     1.7470 hc         1 7UJ       0.023700
     63 H14          3.6720    -4.4390     0.7040 hc         1 7UJ       0.013700
     64 H15          2.0780    -4.4740     1.6160 hc         1 7UJ       0.013700
     65 H27         -2.4030    -2.4190     2.4580 ha         1 7UJ       0.119000
     66 H29         -6.0820    -4.5340    -0.1520 ha         1 7UJ       0.111000
@<TRIPOS>BOND
     1     1     2 ar  
     2     1    25 ar  
     3     1    35 1   
     4     2     3 1   
     5     2    28 ar  
     6     3    23 1   
     7     3    36 1   
     8     3    37 1   
     9     4     5 1   
    10     4    29 1   
    11     4    38 1   
    12     4    39 1   
    13     5    30 1   
    14     5    40 1   
    15     5    41 1   
    16     6    30 1   
    17     6    31 1   
    18     6    42 1   
    19     6    43 1   
    20     7     8 1   
    21     7    23 1   
    22     7    24 1   
    23     7    44 1   
    24     8    45 1   
    25     8    46 1   
    26     8    47 1   
    27     9    17 1   
    28     9    18 ar  
    29     9    22 ar  
    30    10    11 ar  
    31    10    18 ar  
    32    10    48 1   
    33    11    12 ar  
    34    11    19 1   
    35    12    22 ar  
    36    12    49 1   
    37    13    15 ar  
    38    13    19 ar  
    39    13    65 1   
    40    14    20 ar  
    41    14    21 ar  
    42    14    66 1   
    43    15    21 ar  
    44    15    50 1   
    45    16    17 2   
    46    17    23 1   
    47    18    51 1   
    48    19    20 ar  
    49    20    52 1   
    50    21    53 1   
    51    22    54 1   
    52    24    55 1   
    53    24    56 1   
    54    24    57 1   
    55    25    26 ar  
    56    25    58 1   
    57    26    27 ar  
    58    26    59 1   
    59    27    28 ar  
    60    27    60 1   
    61    28    29 1   
    62    30    61 1   
    63    30    62 1   
    64    31    32 1   
    65    31    63 1   
    66    31    64 1   
    67    32    33 1   
    68    32    34 1   
@<TRIPOS>SUBSTRUCTURE
     1 7UJ         1 TEMP              0 ****  ****    0 ROOT
