@<TRIPOS>MOLECULE
7UJ
   66    68     1     0     0
SMALL
bcc


@<TRIPOS>ATOM
      1 C4           1.9050     5.4810    -0.3020 ca         1 7UJ      -0.094000
      2 C5           1.7200     4.1290    -0.5450 ca         1 7UJ      -0.140300
      3 C6           0.8740     3.6750    -1.7050 c3         1 7UJ       0.152300
      4 C7           2.8280     0.9050     0.7450 c3         1 7UJ       0.135400
      5 C8           2.4200    -0.4540     0.2150 c3         1 7UJ      -0.085400
      6 C10          2.7270    -2.9620     0.4740 c3         1 7UJ      -0.053400
      7 C13         -1.3670     3.4310    -0.5880 c3         1 7UJ       0.122700
      8 C15         -1.8800     4.6940    -1.2710 c3         1 7UJ      -0.104600
      9 C17         -1.3280     0.6320    -1.2880 ca         1 7UJ      -0.138600
     10 C20         -3.0810    -0.9660    -1.7100 ca         1 7UJ      -0.123000
     11 C21         -3.0990    -1.3450    -0.3670 cp         1 7UJ      -0.016000
     12 C22         -2.2080    -0.7180     0.5050 ca         1 7UJ      -0.123000
     13 C24         -3.6310    -3.3010     1.0930 ca         1 7UJ      -0.112500
     14 C26         -6.1910    -3.4680     0.0460 ca         1 7UJ      -0.131500
     15 C28         -4.5010    -4.2830     1.5420 ca         1 7UJ      -0.131500
     16 O3           0.4680     1.1550    -2.6860 o          1 7UJ      -0.587100
     17 C16         -0.2980     1.5750    -1.8280 c          1 7UJ       0.691700
     18 C19         -2.1970    -0.0050    -2.1690 ca         1 7UJ      -0.095000
     19 C23         -4.0270    -2.3880     0.1140 cp         1 7UJ      -0.036000
     20 C25         -5.3200    -2.4860    -0.4030 ca         1 7UJ      -0.112500
     21 C27         -5.7850    -4.3710     1.0200 ca         1 7UJ      -0.129000
     22 C18         -1.3400     0.2620     0.0530 ca         1 7UJ      -0.095000
     23 N           -0.2500     2.8310    -1.3300 n          1 7UJ      -0.467800
     24 C14         -1.0640     3.6970     0.8840 c3         1 7UJ      -0.104600
     25 C3           2.6900     5.9340     0.7530 ca         1 7UJ      -0.183000
     26 C2           3.3010     5.0070     1.5790 ca         1 7UJ      -0.089000
     27 C1           3.1430     3.6430     1.3530 ca         1 7UJ      -0.226000
     28 C            2.3580     3.2000     0.2920 ca         1 7UJ       0.176100
     29 O            2.1550     1.9040    -0.0030 os         1 7UJ      -0.313900
     30 C9           3.1600    -1.5750     0.9330 c3         1 7UJ      -0.077400
     31 C11          3.4890    -4.0710     1.1810 c3         1 7UJ      -0.204400
     32 C12          3.1080    -5.5100     0.7940 c          1 7UJ       0.927600
     33 O1           2.0600    -5.6790     0.1390 o          1 7UJ      -0.847300
     34 O2           3.8830    -6.4070     1.1890 o          1 7UJ      -0.847300
     35 H3           1.4170     6.2000    -0.9520 ha         1 7UJ       0.122000
     36 H4           0.5140     4.5560    -2.2420 h1         1 7UJ       0.061700
     37 H5           1.4820     3.1150    -2.4140 h1         1 7UJ       0.061700
     38 H7           2.5690     0.9830     1.8070 h1         1 7UJ       0.028200
     39 H6           3.9140     1.0370     0.6620 h1         1 7UJ       0.028200
     40 H8           1.3420    -0.5850     0.3430 hc         1 7UJ       0.058200
     41 H9           2.6160    -0.5040    -0.8600 hc         1 7UJ       0.058200
     42 H13          1.6540    -3.0800     0.6460 hc         1 7UJ       0.042200
     43 H12          2.8700    -3.0450    -0.6080 hc         1 7UJ       0.042200
     44 H16         -2.1800     2.7060    -0.6280 h1         1 7UJ       0.060700
     45 H20         -2.0990     4.5190    -2.3250 hc         1 7UJ       0.039033
     46 H21         -2.8020     5.0120    -0.7840 hc         1 7UJ       0.039033
     47 H22         -1.1740     5.5230    -1.1970 hc         1 7UJ       0.039033
     48 H25         -3.7460    -1.4490    -2.4160 ha         1 7UJ       0.134000
     49 H26         -2.2010    -0.9810     1.5550 ha         1 7UJ       0.134000
     50 H31         -4.1710    -4.9870     2.2950 ha         1 7UJ       0.129000
     51 H24         -2.1890     0.2540    -3.2200 ha         1 7UJ       0.139500
     52 H28         -5.6600    -1.7780    -1.1490 ha         1 7UJ       0.137000
     53 H30         -6.4650    -5.1360     1.3720 ha         1 7UJ       0.124000
     54 H23         -0.6610     0.7330     0.7520 ha         1 7UJ       0.139500
     55 H18         -0.3620     4.5180     1.0180 hc         1 7UJ       0.039033
     56 H17         -1.9890     3.9620     1.3970 hc         1 7UJ       0.039033
     57 H19         -0.6490     2.8190     1.3780 hc         1 7UJ       0.039033
     58 H2           2.8170     6.9940     0.9250 ha         1 7UJ       0.125000
     59 H1           3.9120     5.3350     2.4100 ha         1 7UJ       0.123000
     60 H            3.6420     2.9440     2.0100 ha         1 7UJ       0.139000
     61 H10          4.2390    -1.4590     0.7790 hc         1 7UJ       0.023700
     62 H11          2.9990    -1.4860     2.0140 hc         1 7UJ       0.023700
     63 H14          4.5650    -3.9410     1.0210 hc         1 7UJ       0.013700
     64 H15          3.3520    -3.9690     2.2660 hc         1 7UJ       0.013700
     65 H27         -2.6260    -3.2600     1.4940 ha         1 7UJ       0.137000
     66 H29         -7.1920    -3.5240    -0.3620 ha         1 7UJ       0.129000
@<TRIPOS>BOND
     1     1     2 ar  
     2     1    25 ar  
     3     1    35 1   
     4     2     3 1   
     5     2    28 ar  
     6     3    23 1   
     7     3    36 1   
     8     3    37 1   
     9     4     5 1   
    10     4    29 1   
    11     4    38 1   
    12     4    39 1   
    13     5    30 1   
    14     5    40 1   
    15     5    41 1   
    16     6    30 1   
    17     6    31 1   
    18     6    42 1   
    19     6    43 1   
    20     7     8 1   
    21     7    23 1   
    22     7    24 1   
    23     7    44 1   
    24     8    45 1   
    25     8    46 1   
    26     8    47 1   
    27     9    17 1   
    28     9    18 ar  
    29     9    22 ar  
    30    10    11 ar  
    31    10    18 ar  
    32    10    48 1   
    33    11    12 ar  
    34    11    19 1   
    35    12    22 ar  
    36    12    49 1   
    37    13    15 ar  
    38    13    19 ar  
    39    13    65 1   
    40    14    20 ar  
    41    14    21 ar  
    42    14    66 1   
    43    15    21 ar  
    44    15    50 1   
    45    16    17 2   
    46    17    23 1   
    47    18    51 1   
    48    19    20 ar  
    49    20    52 1   
    50    21    53 1   
    51    22    54 1   
    52    24    55 1   
    53    24    56 1   
    54    24    57 1   
    55    25    26 ar  
    56    25    58 1   
    57    26    27 ar  
    58    26    59 1   
    59    27    28 ar  
    60    27    60 1   
    61    28    29 1   
    62    30    61 1   
    63    30    62 1   
    64    31    32 1   
    65    31    63 1   
    66    31    64 1   
    67    32    33 1   
    68    32    34 1   
@<TRIPOS>SUBSTRUCTURE
     1 7UJ         1 TEMP              0 ****  ****    0 ROOT
