@<TRIPOS>MOLECULE
7UK
   14    14     1     0     0
SMALL
No Charge or Current Charge


@<TRIPOS>ATOM
      1 C02         27.5060    -6.8880    15.7900 c          1 7UK       0.564000
      2 C03         28.2640    -5.7560    16.4620 c5         1 7UK      -0.172400
      3 C04         29.7220    -6.2350    16.3420 c5         1 7UK       0.157300
      4 C06         29.5400    -7.7600    16.6510 c5         1 7UK       0.061000
      5 N07         28.2220    -8.0220    16.0600 ns         1 7UK      -0.517900
      6 O01         26.6140    -6.8410    14.9590 o          1 7UK      -0.545000
      7 O05         30.5780    -5.5740    17.2720 oh         1 7UK      -0.644000
      8 H031        28.0460    -4.7870    16.0020 hc         1 7UK       0.088200
      9 H032        27.9900    -5.7460    17.5230 hc         1 7UK       0.088200
     10 H041        30.0840    -6.0940    15.3130 h1         1 7UK       0.042700
     11 H062        29.5370    -7.9580    17.7310 h1         1 7UK       0.050200
     12 H061        30.3320    -8.3650    16.1890 h1         1 7UK       0.050200
     13 H071        27.9430    -8.8850    15.6050 hn         1 7UK       0.328500
     14 H051        31.4900    -5.9050    17.1100 ho         1 7UK       0.449000
@<TRIPOS>BOND
     1     1     2 1   
     2     1     5 1   
     3     1     6 2   
     4     2     3 1   
     5     2     8 1   
     6     2     9 1   
     7     3     4 1   
     8     3     7 1   
     9     3    10 1   
    10     4     5 1   
    11     4    11 1   
    12     4    12 1   
    13     5    13 1   
    14     7    14 1   
@<TRIPOS>SUBSTRUCTURE
     1 7UK         1 TEMP              0 ****  ****    0 ROOT
