@<TRIPOS>MOLECULE
7UK
   14    14     1     0     0
SMALL
abcg2


@<TRIPOS>ATOM
      1 C02         27.5170    -6.9100    15.8010 c          1 7UK       0.564000
      2 C03         28.3050    -5.7450    16.3690 c5         1 7UK      -0.172400
      3 C04         29.7410    -6.2490    16.3880 c5         1 7UK       0.157300
      4 C06         29.5690    -7.7690    16.5500 c5         1 7UK       0.061000
      5 N07         28.3020    -7.9990    15.8940 ns         1 7UK      -0.517900
      6 O01         26.3840    -6.8770    15.3570 o          1 7UK      -0.545000
      7 O05         30.4790    -5.6370    17.4090 oh         1 7UK      -0.644000
      8 H031        28.1550    -4.8350    15.7890 hc         1 7UK       0.088200
      9 H032        27.9520    -5.5570    17.3890 hc         1 7UK       0.088200
     10 H041        30.1920    -6.0610    15.4050 h1         1 7UK       0.042700
     11 H062        29.5320    -8.0380    17.6110 h1         1 7UK       0.050200
     12 H061        30.3700    -8.3400    16.0800 h1         1 7UK       0.050200
     13 H071        27.9660    -8.9210    15.6620 hn         1 7UK       0.328500
     14 H051        31.4040    -5.8810    17.3060 ho         1 7UK       0.449000
@<TRIPOS>BOND
     1     1     2 1   
     2     1     5 1   
     3     1     6 2   
     4     2     3 1   
     5     2     8 1   
     6     2     9 1   
     7     3     4 1   
     8     3     7 1   
     9     3    10 1   
    10     4     5 1   
    11     4    11 1   
    12     4    12 1   
    13     5    13 1   
    14     7    14 1   
@<TRIPOS>SUBSTRUCTURE
     1 7UK         1 TEMP              0 ****  ****    0 ROOT
