@<TRIPOS>MOLECULE
7UL
   53    56     1     0     0
SMALL
abcg2


@<TRIPOS>ATOM
      1 OAC          5.9160    -0.4060    -0.6930 o          1 7UL      -0.555000
      2 CBA          5.1880     0.5540    -0.5430 c          1 7UL       0.623000
      3 NAU          5.6730     1.7260    -0.0130 ns         1 7UL      -0.467500
      4 CAZ          4.9840     2.8820     0.2530 c          1 7UL       0.597600
      5 OAB          5.5380     3.8450     0.7410 o          1 7UL      -0.520000
      6 CBB          3.5680     2.8230    -0.1020 ca         1 7UL      -0.217600
      7 CAL          2.7570     3.9360     0.1180 ca         1 7UL      -0.015000
      8 CAH          1.4190     3.9050    -0.2120 ca         1 7UL      -0.151000
      9 CAI          0.8920     2.7470    -0.7760 ca         1 7UL      -0.049000
     10 CAM          1.6810     1.6350    -1.0010 ca         1 7UL      -0.172000
     11 CBC          3.0380     1.6550    -0.6640 ca         1 7UL       0.123600
     12 NBF          3.8570     0.5520    -0.8780 n          1 7UL      -0.304000
     13 CAS          3.3050    -0.6680    -1.4540 c3         1 7UL       0.148300
     14 CAW          2.4300    -1.4270    -0.4890 ca         1 7UL      -0.131300
     15 CAN          1.1720    -1.8530    -0.8860 ca         1 7UL      -0.056000
     16 CAJ          2.8580    -1.7130     0.8050 ca         1 7UL      -0.047000
     17 CAK          2.0400    -2.4030     1.6850 ca         1 7UL      -0.155000
     18 CAX          0.7910    -2.8080     1.2570 ca         1 7UL       0.215000
     19 FAD         -0.0140    -3.4540     2.1110 f          1 7UL      -0.163000
     20 CAY          0.3320    -2.5420    -0.0190 ca         1 7UL      -0.189600
     21 CAV         -1.0040    -3.0510    -0.4720 c          1 7UL       0.626700
     22 OAA         -1.1780    -4.2540    -0.5930 o          1 7UL      -0.574100
     23 NBE         -1.9340    -2.1230    -0.7620 n          1 7UL      -0.408800
     24 CAR         -1.8380    -0.7060    -0.4580 c6         1 7UL       0.097500
     25 CAP         -2.9510    -0.2970     0.4910 c6         1 7UL       0.156300
     26 CAQ         -3.2360    -2.5050    -1.2790 c6         1 7UL       0.097500
     27 CAO         -4.3350    -2.0790    -0.3220 c6         1 7UL       0.156300
     28 NBD         -4.2430    -0.6560    -0.0580 n3         1 7UL      -0.740600
     29 CAT         -5.3610    -0.1160     0.6770 c3         1 7UL       0.112800
     30 CBG         -5.9590     1.0520    -0.0710 c3         1 7UL       0.296000
     31 FAF         -5.0760     2.0450    -0.2610 f          1 7UL      -0.116333
     32 FAG         -6.4010     0.6980    -1.2850 f          1 7UL      -0.116333
     33 FAE         -7.0020     1.5800     0.5880 f          1 7UL      -0.116333
     34 H1           6.6580     1.7140     0.2220 hn         1 7UL       0.347500
     35 H2           3.1940     4.8240     0.5520 ha         1 7UL       0.141000
     36 H3           0.7890     4.7660    -0.0390 ha         1 7UL       0.127000
     37 H4          -0.1540     2.7070    -1.0470 ha         1 7UL       0.118000
     38 H5           1.2220     0.7630    -1.4390 ha         1 7UL       0.123000
     39 H6           2.7500    -0.4120    -2.3580 h1         1 7UL       0.081200
     40 H7           4.1400    -1.2850    -1.7760 h1         1 7UL       0.081200
     41 H8           0.8230    -1.6360    -1.8910 ha         1 7UL       0.122000
     42 H9           3.8360    -1.4000     1.1460 ha         1 7UL       0.131000
     43 H10          2.3660    -2.6200     2.6940 ha         1 7UL       0.141000
     44 H11         -0.8790    -0.4720    -0.0040 h1         1 7UL       0.066450
     45 H12         -1.9150    -0.1330    -1.3870 h1         1 7UL       0.066450
     46 H13         -2.7740    -0.7630     1.4740 h1         1 7UL       0.047700
     47 H14         -2.8960     0.7830     0.6340 h1         1 7UL       0.047700
     48 H15         -3.3840    -2.0150    -2.2460 h1         1 7UL       0.066450
     49 H16         -3.2710    -3.5790    -1.4360 h1         1 7UL       0.066450
     50 H17         -5.2990    -2.2970    -0.7850 h1         1 7UL       0.047700
     51 H18         -4.2700    -2.6800     0.5990 h1         1 7UL       0.047700
     52 H20         -6.1470    -0.8650     0.8040 h1         1 7UL       0.072200
     53 H21         -5.0870     0.2160     1.6850 h1         1 7UL       0.072200
@<TRIPOS>BOND
     1     1     2 2   
     2     2     3 1   
     3     2    12 1   
     4     3     4 1   
     5     3    34 1   
     6     4     5 2   
     7     4     6 1   
     8     6     7 ar  
     9     6    11 ar  
    10     7     8 ar  
    11     7    35 1   
    12     8     9 ar  
    13     8    36 1   
    14     9    10 ar  
    15     9    37 1   
    16    10    11 ar  
    17    10    38 1   
    18    11    12 1   
    19    12    13 1   
    20    13    14 1   
    21    13    39 1   
    22    13    40 1   
    23    14    15 ar  
    24    14    16 ar  
    25    15    20 ar  
    26    15    41 1   
    27    16    17 ar  
    28    16    42 1   
    29    17    18 ar  
    30    17    43 1   
    31    18    19 1   
    32    18    20 ar  
    33    20    21 1   
    34    21    22 2   
    35    21    23 1   
    36    23    24 1   
    37    23    26 1   
    38    24    25 1   
    39    24    44 1   
    40    24    45 1   
    41    25    28 1   
    42    25    46 1   
    43    25    47 1   
    44    26    27 1   
    45    26    48 1   
    46    26    49 1   
    47    27    28 1   
    48    27    50 1   
    49    27    51 1   
    50    28    29 1   
    51    29    30 1   
    52    29    52 1   
    53    29    53 1   
    54    30    31 1   
    55    30    32 1   
    56    30    33 1   
@<TRIPOS>SUBSTRUCTURE
     1 7UL         1 TEMP              0 ****  ****    0 ROOT
