@<TRIPOS>MOLECULE
7UL
   53    56     1     0     0
SMALL
No Charge or Current Charge


@<TRIPOS>ATOM
      1 OAC          5.8920     0.0160    -0.4800 o          1 7UL      -0.555000
      2 CBA          4.9580     0.7960    -0.4030 c          1 7UL       0.623000
      3 NAU          5.1130     1.9720     0.2550 ns         1 7UL      -0.467500
      4 CAZ          4.1960     2.9470     0.4670 c          1 7UL       0.597600
      5 OAB          4.4800     3.9480     1.1050 o          1 7UL      -0.520000
      6 CBB          2.8510     2.7090    -0.1370 ca         1 7UL      -0.217600
      7 CAL          1.8440     3.6940    -0.0360 ca         1 7UL      -0.015000
      8 CAH          0.6050     3.5010    -0.6630 ca         1 7UL      -0.151000
      9 CAI          0.3770     2.3410    -1.4150 ca         1 7UL      -0.049000
     10 CAM          1.3770     1.3600    -1.5120 ca         1 7UL      -0.172000
     11 CBC          2.6040     1.5030    -0.8230 ca         1 7UL       0.123600
     12 NBF          3.6790     0.5440    -0.9450 n          1 7UL      -0.304000
     13 CAS          3.4020    -0.8260    -1.4590 c3         1 7UL       0.148300
     14 CAW          2.6100    -1.6740    -0.4680 ca         1 7UL      -0.131300
     15 CAN          1.2750    -2.0320    -0.7370 ca         1 7UL      -0.056000
     16 CAJ          3.2080    -2.0900     0.7360 ca         1 7UL      -0.047000
     17 CAK          2.4720    -2.8470     1.6620 ca         1 7UL      -0.155000
     18 CAX          1.1350    -3.1810     1.3990 ca         1 7UL       0.215000
     19 FAD          0.4460    -3.8740     2.3330 f          1 7UL      -0.163000
     20 CAY          0.5150    -2.7620     0.2050 ca         1 7UL      -0.189600
     21 CAV         -0.9240    -3.1120    -0.0750 c          1 7UL       0.626700
     22 OAA         -1.3640    -4.2270     0.1750 o          1 7UL      -0.574100
     23 NBE         -1.7150    -2.1580    -0.7560 n          1 7UL      -0.408800
     24 CAR         -1.5450    -0.6870    -0.5550 c6         1 7UL       0.097500
     25 CAP         -2.6970    -0.0680     0.2830 c6         1 7UL       0.156300
     26 CAQ         -3.0680    -2.4950    -1.2810 c6         1 7UL       0.097500
     27 CAO         -4.2000    -1.8760    -0.4180 c6         1 7UL       0.156300
     28 NBD         -4.0450    -0.3970    -0.2750 n3         1 7UL      -0.740600
     29 CAT         -5.1860     0.2200     0.4780 c3         1 7UL       0.112800
     30 CBG         -5.2460     1.7770     0.5520 c3         1 7UL       0.296000
     31 FAF         -4.3870     2.2640     1.4780 f          1 7UL      -0.116333
     32 FAG         -4.9440     2.3440    -0.6400 f          1 7UL      -0.116333
     33 FAE         -6.4890     2.1850     0.8970 f          1 7UL      -0.116333
     34 H1           6.0250     2.1340     0.6490 hn         1 7UL       0.347500
     35 H2           2.0260     4.6170     0.5120 ha         1 7UL       0.141000
     36 H3          -0.1670     4.2630    -0.5900 ha         1 7UL       0.127000
     37 H4          -0.5710     2.2080    -1.9340 ha         1 7UL       0.118000
     38 H5           1.1730     0.4920    -2.1280 ha         1 7UL       0.123000
     39 H6           2.8710    -0.7570    -2.4160 h1         1 7UL       0.081200
     40 H7           4.3400    -1.3470    -1.6900 h1         1 7UL       0.081200
     41 H8           0.8220    -1.7420    -1.6830 ha         1 7UL       0.122000
     42 H9           4.2400    -1.8260     0.9570 ha         1 7UL       0.131000
     43 H10          2.9340    -3.1650     2.5930 ha         1 7UL       0.141000
     44 H11         -0.6000    -0.4560    -0.0460 h1         1 7UL       0.066450
     45 H12         -1.5150    -0.1980    -1.5380 h1         1 7UL       0.066450
     46 H13         -2.6160    -0.4350     1.3170 h1         1 7UL       0.047700
     47 H14         -2.5410     1.0190     0.3120 h1         1 7UL       0.047700
     48 H15         -3.1530    -2.1070    -2.3060 h1         1 7UL       0.066450
     49 H16         -3.2070    -3.5830    -1.3400 h1         1 7UL       0.066450
     50 H17         -5.1660    -2.1160    -0.8850 h1         1 7UL       0.047700
     51 H18         -4.1910    -2.3570     0.5710 h1         1 7UL       0.047700
     52 H20         -6.1310    -0.1090     0.0260 h1         1 7UL       0.072200
     53 H21         -5.1940    -0.1590     1.5090 h1         1 7UL       0.072200
@<TRIPOS>BOND
     1     1     2 2   
     2     2     3 1   
     3     2    12 1   
     4     3     4 1   
     5     3    34 1   
     6     4     5 2   
     7     4     6 1   
     8     6     7 ar  
     9     6    11 ar  
    10     7     8 ar  
    11     7    35 1   
    12     8     9 ar  
    13     8    36 1   
    14     9    10 ar  
    15     9    37 1   
    16    10    11 ar  
    17    10    38 1   
    18    11    12 1   
    19    12    13 1   
    20    13    14 1   
    21    13    39 1   
    22    13    40 1   
    23    14    15 ar  
    24    14    16 ar  
    25    15    20 ar  
    26    15    41 1   
    27    16    17 ar  
    28    16    42 1   
    29    17    18 ar  
    30    17    43 1   
    31    18    19 1   
    32    18    20 ar  
    33    20    21 1   
    34    21    22 2   
    35    21    23 1   
    36    23    24 1   
    37    23    26 1   
    38    24    25 1   
    39    24    44 1   
    40    24    45 1   
    41    25    28 1   
    42    25    46 1   
    43    25    47 1   
    44    26    27 1   
    45    26    48 1   
    46    26    49 1   
    47    27    28 1   
    48    27    50 1   
    49    27    51 1   
    50    28    29 1   
    51    29    30 1   
    52    29    52 1   
    53    29    53 1   
    54    30    31 1   
    55    30    32 1   
    56    30    33 1   
@<TRIPOS>SUBSTRUCTURE
     1 7UL         1 TEMP              0 ****  ****    0 ROOT
