@<TRIPOS>MOLECULE
7UM
   27    28     1     0     0
SMALL
No Charge or Current Charge


@<TRIPOS>ATOM
      1 C1           7.5240    -5.9810     4.4170 c3         1 7UM      -0.096400
      2 C2           6.8020    -6.0440     5.7820 c3         1 7UM       0.076600
      3 C3           7.3110    -4.1180     7.3630 cc         1 7UM       0.446400
      4 C4           8.9600    -4.9360     8.4820 cd         1 7UM       0.430900
      5 C5           8.6010    -5.9060     7.5970 cc         1 7UM      -0.353600
      6 C6           9.3060    -7.1860     7.5560 c          1 7UM       0.640600
      7 N            7.5440    -5.3880     6.8730 na         1 7UM      -0.109500
      8 C            7.7120    -4.5490     3.8710 c3         1 7UM      -0.095100
      9 C7          10.7140    -6.3280     9.3600 c          1 7UM       0.628000
     10 N1           8.1620    -3.8250     8.3380 nd         1 7UM      -0.704000
     11 N2          10.3130    -7.2660     8.4600 ns         1 7UM      -0.473500
     12 N3           9.9970    -5.1220     9.3690 n          1 7UM      -0.361300
     13 O1          11.6520    -6.5490    10.1080 o          1 7UM      -0.554000
     14 H1           6.9450    -6.5630     3.6890 hc         1 7UM       0.063700
     15 H2           8.5030    -6.4680     4.5000 hc         1 7UM       0.063700
     16 H3           5.8130    -5.5750     5.6920 h1         1 7UM       0.069200
     17 H4           6.6400    -7.0940     6.0560 h1         1 7UM       0.069200
     18 H5           6.5310    -3.4760     6.9710 h5         1 7UM       0.062100
     19 H6           8.1760    -4.5780     2.8780 hc         1 7UM       0.038367
     20 H7           6.7460    -4.0370     3.7820 hc         1 7UM       0.038367
     21 H8           8.3600    -3.9590     4.5300 hc         1 7UM       0.038367
     22 H9          10.5640    -4.5000    11.3210 h1         1 7UM       0.058700
     23 H10         11.3110    -3.5780     9.9840 h1         1 7UM       0.058700
     24 H11          9.6030    -3.3050    10.4220 h1         1 7UM       0.058700
     25 H12         10.8310    -8.1300     8.4650 hn         1 7UM       0.344500
     26 O            9.0430    -8.1060     6.8010 o          1 7UM      -0.539000
     27 C8          10.3890    -4.0630    10.3290 c3         1 7UM       0.101300
@<TRIPOS>BOND
     1     1     2 1   
     2     1     8 1   
     3     1    14 1   
     4     1    15 1   
     5     2     7 1   
     6     2    16 1   
     7     2    17 1   
     8     3     7 1   
     9     3    10 2   
    10     3    18 1   
    11     4     5 2   
    12     4    10 1   
    13     4    12 1   
    14     5     6 1   
    15     5     7 1   
    16     6    11 1   
    17     6    26 2   
    18     8    19 1   
    19     8    20 1   
    20     8    21 1   
    21     9    11 1   
    22     9    12 1   
    23     9    13 2   
    24    11    25 1   
    25    12    27 1   
    26    22    27 1   
    27    23    27 1   
    28    24    27 1   
@<TRIPOS>SUBSTRUCTURE
     1 7UM         1 TEMP              0 ****  ****    0 ROOT
