@<TRIPOS>MOLECULE
7UM
   27    28     1     0     0
SMALL
bcc


@<TRIPOS>ATOM
      1 C1           7.5300    -5.9910     4.4760 c3         1 7UM      -0.096400
      2 C2           6.7460    -6.0050     5.7800 c3         1 7UM       0.047300
      3 C3           7.3000    -4.1860     7.3880 cc         1 7UM       0.446400
      4 C4           8.9410    -4.9620     8.4440 cd         1 7UM       0.496200
      5 C5           8.5590    -5.9410     7.5560 cc         1 7UM      -0.368200
      6 C6           9.2130    -7.2070     7.5000 c          1 7UM       0.783100
      7 N            7.4810    -5.4120     6.8860 na         1 7UM      -0.130900
      8 C            7.9390    -4.5970     4.0260 c3         1 7UM      -0.095100
      9 C7          10.7030    -6.2820     9.3020 c          1 7UM       0.837500
     10 N1           8.1630    -3.8730     8.3410 nd         1 7UM      -0.704000
     11 N2          10.2620    -7.2440     8.4110 ns         1 7UM      -0.607500
     12 N3           9.9830    -5.1130     9.3170 n          1 7UM      -0.428300
     13 O1          11.6640    -6.4870    10.0160 o          1 7UM      -0.629500
     14 H1           6.8920    -6.4540     3.7190 hc         1 7UM       0.063700
     15 H2           8.4080    -6.6330     4.5670 hc         1 7UM       0.063700
     16 H3           5.8240    -5.4340     5.6760 h1         1 7UM       0.069200
     17 H4           6.4710    -7.0220     6.0570 h1         1 7UM       0.069200
     18 H5           6.5140    -3.5370     7.0320 h5         1 7UM       0.062100
     19 H6           8.4410    -4.6370     3.0590 hc         1 7UM       0.038367
     20 H7           7.0720    -3.9420     3.9220 hc         1 7UM       0.038367
     21 H8           8.6290    -4.1280     4.7290 hc         1 7UM       0.038367
     22 H9          11.1010    -4.3580    10.8990 h1         1 7UM       0.058700
     23 H10         10.6860    -3.1650     9.6590 h1         1 7UM       0.058700
     24 H11          9.4510    -3.7330    10.7940 h1         1 7UM       0.058700
     25 H12         10.8010    -8.1010     8.4280 hn         1 7UM       0.344500
     26 O            8.9540    -8.1620     6.7910 o          1 7UM      -0.614500
     27 C8          10.3250    -4.0270    10.2180 c3         1 7UM       0.101300
@<TRIPOS>BOND
     1     1     2 1   
     2     1     8 1   
     3     1    14 1   
     4     1    15 1   
     5     2     7 1   
     6     2    16 1   
     7     2    17 1   
     8     3     7 1   
     9     3    10 2   
    10     3    18 1   
    11     4     5 2   
    12     4    10 1   
    13     4    12 1   
    14     5     6 1   
    15     5     7 1   
    16     6    11 1   
    17     6    26 2   
    18     8    19 1   
    19     8    20 1   
    20     8    21 1   
    21     9    11 1   
    22     9    12 1   
    23     9    13 2   
    24    11    25 1   
    25    12    27 1   
    26    22    27 1   
    27    23    27 1   
    28    24    27 1   
@<TRIPOS>SUBSTRUCTURE
     1 7UM         1 TEMP              0 ****  ****    0 ROOT
