@<TRIPOS>MOLECULE
7UN
   50    54     1     0     0
SMALL
No Charge or Current Charge


@<TRIPOS>ATOM
      1 C4          -3.7110     6.0280   -44.7370 ca         1 7UN       0.165000
      2 C5          -4.1230     6.4900   -45.9870 ca         1 7UN      -0.322000
      3 C6          -5.4390     6.9760   -46.1030 ca         1 7UN       0.214900
      4 N1          -6.2780     6.9980   -45.0520 nb         1 7UN      -0.233000
      5 N3          -4.5480     6.0550   -43.6800 nb         1 7UN      -0.272000
      6 C2          -5.7870     6.5320   -43.8930 ca         1 7UN       0.408900
      7 CAG         -2.3620     5.5160   -44.5810 cc         1 7UN      -0.219400
      8 CAI         -3.2180     6.4910   -47.1230 cc         1 7UN       0.065600
      9 CAK         -1.0500     6.0180   -48.1540 ca         1 7UN      -0.020400
     10 CAL         -1.4260     5.4970   -45.7340 c          1 7UN       0.565200
     11 CAN         -1.9260     4.9770   -43.2900 ca         1 7UN       0.003200
     12 CAO         -2.5520     3.8380   -42.7450 ca         1 7UN      -0.077000
     13 CAP         -2.1420     3.3280   -41.5010 ca         1 7UN      -0.111500
     14 CAQ         -1.0990     3.9520   -40.7980 ca         1 7UN       0.119000
     15 CAR         -0.4650     5.0830   -41.3360 ca         1 7UN      -0.111500
     16 CAS         -0.8770     5.5940   -42.5800 ca         1 7UN      -0.077000
     17 CAT         -6.4730     5.9350   -41.4710 c3         1 7UN       0.169800
     18 CAU         -6.7730     4.4050   -41.4350 c3         1 7UN       0.272000
     19 CAZ          0.2970     6.4730   -48.0790 ca         1 7UN      -0.080000
     20 CBA          1.1080     6.5620   -49.2310 ca         1 7UN      -0.065000
     21 CBB          0.5570     6.2250   -50.4750 ca         1 7UN      -0.061000
     22 CBC         -0.7510     5.8300   -50.5510 ca         1 7UN      -0.153000
     23 CBD         -1.5900     5.7310   -49.4340 ca         1 7UN      -0.034000
     24 CBG         -1.0040     5.5800   -51.9260 cc         1 7UN      -0.185100
     25 FAV         -5.9420     3.7080   -42.2430 f          1 7UN      -0.114000
     26 FAW         -8.0450     4.1480   -41.8230 f          1 7UN      -0.114000
     27 FAX         -6.6220     3.9250   -40.1790 f          1 7UN      -0.114000
     28 NAH         -6.6580     6.5740   -42.8120 nu         1 7UN      -0.917100
     29 NAJ         -1.8960     6.0370   -46.9730 n          1 7UN      -0.158200
     30 NBE          1.2000     6.2570   -51.7140 nc         1 7UN      -0.280400
     31 NBF          0.1880     5.8450   -52.5880 na         1 7UN       0.156500
     32 OAM         -0.3050     5.0120   -45.6250 o          1 7UN      -0.520000
     33 ClAY        -0.5850     3.3140   -39.2420 cl         1 7UN      -0.218000
     34 H6          -5.8250     7.3560   -47.0480 h4         1 7UN       0.021100
     35 HAI         -3.4190     6.9030   -48.1060 h4         1 7UN       0.209000
     36 HAO         -3.3580     3.3510   -43.2880 ha         1 7UN       0.121000
     37 HAP         -2.6310     2.4510   -41.0840 ha         1 7UN       0.125500
     38 HAR          0.3430     5.5640   -40.7910 ha         1 7UN       0.125500
     39 HAS         -0.3860     6.4730   -42.9910 ha         1 7UN       0.121000
     40 HAT         -5.4510     6.1010   -41.1020 h1         1 7UN       0.099700
     41 H6L         -7.1440     6.4110   -40.7420 h1         1 7UN       0.099700
     42 HAZ          0.7200     6.7770   -47.1250 ha         1 7UN       0.129000
     43 HBA          2.1380     6.9000   -49.1570 ha         1 7UN       0.135000
     44 HBD         -2.6190     5.4020   -49.5600 ha         1 7UN       0.125000
     45 HBG         -1.8860     5.2520   -52.4660 h4         1 7UN       0.230000
     46 H6N          0.6700     6.7310   -54.4340 h1         1 7UN       0.065033
     47 HBH          1.3060     5.0750   -54.1970 h1         1 7UN       0.065033
     48 H6M         -0.4320     5.3260   -54.5360 h1         1 7UN       0.065033
     49 HAH         -7.5880     6.9390   -43.0340 hn         1 7UN       0.521000
     50 CBH          0.4480     5.7370   -54.0290 c3         1 7UN       0.058900
@<TRIPOS>BOND
     1     1     2 ar  
     2     1     5 ar  
     3     1     7 2   
     4     2     3 ar  
     5     2     8 2   
     6     3     4 ar  
     7     3    34 1   
     8     4     6 ar  
     9     5     6 ar  
    10     6    28 1   
    11     7    10 1   
    12     7    11 1   
    13     8    29 1   
    14     8    35 1   
    15     9    19 ar  
    16     9    23 ar  
    17     9    29 1   
    18    10    29 1   
    19    10    32 2   
    20    11    12 ar  
    21    11    16 ar  
    22    12    13 ar  
    23    12    36 1   
    24    13    14 ar  
    25    13    37 1   
    26    14    15 ar  
    27    14    33 1   
    28    15    16 ar  
    29    15    38 1   
    30    16    39 1   
    31    17    18 1   
    32    17    28 1   
    33    17    40 1   
    34    17    41 1   
    35    18    25 1   
    36    18    26 1   
    37    18    27 1   
    38    19    20 ar  
    39    19    42 1   
    40    20    21 ar  
    41    20    43 1   
    42    21    22 ar  
    43    21    30 2   
    44    22    23 ar  
    45    22    24 2   
    46    23    44 1   
    47    24    31 1   
    48    24    45 1   
    49    28    49 1   
    50    30    31 1   
    51    31    50 1   
    52    46    50 1   
    53    47    50 1   
    54    48    50 1   
@<TRIPOS>SUBSTRUCTURE
     1 7UN         1 TEMP              0 ****  ****    0 ROOT
