@<TRIPOS>MOLECULE
7UN
   50    54     1     0     0
SMALL
abcg2


@<TRIPOS>ATOM
      1 C4          -3.6740     6.1820   -44.7040 ca         1 7UN       0.165000
      2 C5          -4.1000     6.8520   -45.8920 ca         1 7UN      -0.322000
      3 C6          -5.3910     7.4360   -45.8800 ca         1 7UN       0.214900
      4 N1          -6.1870     7.3520   -44.8660 nb         1 7UN      -0.233000
      5 N3          -4.5220     6.1090   -43.6540 nb         1 7UN      -0.272000
      6 C2          -5.7050     6.6510   -43.7850 ca         1 7UN       0.408900
      7 CAG         -2.4040     5.6260   -44.6580 cc         1 7UN      -0.219400
      8 CAI         -3.2650     6.9140   -46.9770 cc         1 7UN       0.065600
      9 CAK         -1.2460     6.3710   -48.1210 ca         1 7UN      -0.020400
     10 CAL         -1.5360     5.6900   -45.7930 c          1 7UN       0.565200
     11 CAN         -1.9050     4.9280   -43.4580 ca         1 7UN       0.003200
     12 CAO         -2.5940     3.8460   -42.9130 ca         1 7UN      -0.077000
     13 CAP         -2.1280     3.1900   -41.7830 ca         1 7UN      -0.111500
     14 CAQ         -0.9520     3.6210   -41.1900 ca         1 7UN       0.119000
     15 CAR         -0.2450     4.6940   -41.7080 ca         1 7UN      -0.111500
     16 CAS         -0.7250     5.3380   -42.8370 ca         1 7UN      -0.077000
     17 CAT         -6.3510     5.7960   -41.5840 c3         1 7UN       0.169800
     18 CAU         -6.8490     4.3700   -41.7180 c3         1 7UN       0.272000
     19 CAZ         -0.0930     7.2030   -48.1480 ca         1 7UN      -0.080000
     20 CBA          0.7020     7.2680   -49.2540 ca         1 7UN      -0.065000
     21 CBB          0.3490     6.4810   -50.3740 ca         1 7UN      -0.061000
     22 CBC         -0.8110     5.6580   -50.3360 ca         1 7UN      -0.153000
     23 CBD         -1.6190     5.6010   -49.1840 ca         1 7UN      -0.034000
     24 CBG         -0.8340     5.0520   -51.5880 cc         1 7UN      -0.185100
     25 FAV         -6.2870     3.7250   -42.7470 f          1 7UN      -0.114000
     26 FAW         -8.1740     4.3230   -41.9170 f          1 7UN      -0.114000
     27 FAX         -6.5860     3.6640   -40.6120 f          1 7UN      -0.114000
     28 NAH         -6.5860     6.5530   -42.7750 nu         1 7UN      -0.917100
     29 NAJ         -2.0560     6.3580   -46.9400 n          1 7UN      -0.158200
     30 NBE          0.9720     6.3790   -51.5490 nc         1 7UN      -0.280400
     31 NBF          0.2350     5.5190   -52.2400 na         1 7UN       0.156500
     32 OAM         -0.4140     5.2100   -45.8700 o          1 7UN      -0.520000
     33 CLAY        -0.3560     2.8050   -39.7800 cl         1 7UN      -0.218000
     34 H6          -5.7410     7.9790   -46.7540 h4         1 7UN       0.021100
     35 HAI         -3.5530     7.4120   -47.8940 h4         1 7UN       0.209000
     36 HAO         -3.5090     3.5050   -43.3770 ha         1 7UN       0.121000
     37 HAP         -2.6750     2.3500   -41.3770 ha         1 7UN       0.125500
     38 HAR          0.6690     5.0290   -41.2360 ha         1 7UN       0.125500
     39 HAS         -0.1740     6.1820   -43.2290 ha         1 7UN       0.121000
     40 HAT         -5.2860     5.7800   -41.3530 h1         1 7UN       0.099700
     41 H6L         -6.8690     6.2660   -40.7470 h1         1 7UN       0.099700
     42 HAZ          0.1410     7.7990   -47.2760 ha         1 7UN       0.129000
     43 HBA          1.5770     7.9040   -49.2760 ha         1 7UN       0.135000
     44 HBD         -2.4970     4.9690   -49.1360 ha         1 7UN       0.125000
     45 HBG         -1.5150     4.3480   -52.0370 h4         1 7UN       0.230000
     46 H6N          0.6780     6.0620   -54.2020 h1         1 7UN       0.065033
     47 HBH          1.6150     4.6950   -53.5660 h1         1 7UN       0.065033
     48 H6M         -0.0900     4.4770   -54.0020 h1         1 7UN       0.065033
     49 HAH         -7.4830     6.9940   -42.9060 hn         1 7UN       0.521000
     50 CBH          0.6360     5.1680   -53.5840 c3         1 7UN       0.058900
@<TRIPOS>BOND
     1     1     2 ar  
     2     1     5 ar  
     3     1     7 2   
     4     2     3 ar  
     5     2     8 2   
     6     3     4 ar  
     7     3    34 1   
     8     4     6 ar  
     9     5     6 ar  
    10     6    28 1   
    11     7    10 1   
    12     7    11 1   
    13     8    29 1   
    14     8    35 1   
    15     9    19 ar  
    16     9    23 ar  
    17     9    29 1   
    18    10    29 1   
    19    10    32 2   
    20    11    12 ar  
    21    11    16 ar  
    22    12    13 ar  
    23    12    36 1   
    24    13    14 ar  
    25    13    37 1   
    26    14    15 ar  
    27    14    33 1   
    28    15    16 ar  
    29    15    38 1   
    30    16    39 1   
    31    17    18 1   
    32    17    28 1   
    33    17    40 1   
    34    17    41 1   
    35    18    25 1   
    36    18    26 1   
    37    18    27 1   
    38    19    20 ar  
    39    19    42 1   
    40    20    21 ar  
    41    20    43 1   
    42    21    22 ar  
    43    21    30 2   
    44    22    23 ar  
    45    22    24 2   
    46    23    44 1   
    47    24    31 1   
    48    24    45 1   
    49    28    49 1   
    50    30    31 1   
    51    31    50 1   
    52    46    50 1   
    53    47    50 1   
    54    48    50 1   
@<TRIPOS>SUBSTRUCTURE
     1 7UN         1 TEMP              0 ****  ****    0 ROOT
