@<TRIPOS>MOLECULE
7UO
   55    58     1     0     0
SMALL
No Charge or Current Charge


@<TRIPOS>ATOM
      1 C1         -26.6240    11.6940     0.3590 ca         1 7UO      -0.051000
      2 C2         -27.5920    11.6170     1.3750 ca         1 7UO      -0.172300
      3 C3         -28.6050    12.5910     1.4420 ca         1 7UO      -0.066000
      4 C7         -29.7620    14.6830     0.6290 c3         1 7UO       0.157300
      5 C9         -30.9260    14.4800    -1.5930 c          1 7UO       0.558000
      6 C10        -29.9550    15.4660    -2.2500 c3         1 7UO      -0.160400
      7 C11        -28.6280    14.7920    -2.6310 c3         1 7UO       0.193800
      8 C15        -27.5370    10.4990     2.4020 c3         1 7UO       0.160300
      9 C16        -33.1380    14.4450     1.0540 c3         1 7UO      -0.110100
     10 C20        -23.9330    11.7650     7.5470 ca         1 7UO       0.558800
     11 C22        -25.7200    10.2420     7.1000 ca         1 7UO       0.069700
     12 C24        -23.9880    11.6030     9.9360 c          1 7UO       0.567000
     13 N25        -24.8680    10.7120     9.3700 ns         1 7UO      -0.428200
     14 C27        -26.7770     9.2550     7.6060 c3         1 7UO      -0.094800
     15 N29        -26.7430    10.9050     3.5590 ns         1 7UO      -0.479900
     16 C17        -25.6330    10.6670     5.7380 ca         1 7UO      -0.212600
     17 C18        -24.6650    11.6470     5.3930 ca         1 7UO       0.460900
     18 C23        -23.5170    12.4960     8.7880 c5         1 7UO      -0.233700
     19 C28        -26.5130    10.1030     4.6550 c          1 7UO       0.606700
     20 C4         -28.6650    13.6360     0.4960 ca         1 7UO      -0.125300
     21 C5         -27.6970    13.6970    -0.5320 ca         1 7UO       0.299000
     22 C6         -26.6780    12.7330    -0.5840 ca         1 7UO      -0.169000
     23 N12        -27.6870    14.7060    -1.5000 nu         1 7UO      -0.923200
     24 N19        -23.8560    12.2490     6.2990 nb         1 7UO      -0.612000
     25 N21        -24.7560    10.7480     7.9780 na         1 7UO       0.025200
     26 N8         -30.9570    14.3630    -0.1830 n          1 7UO      -0.410800
     27 O14        -31.7010    13.8430    -2.2950 o          1 7UO      -0.561000
     28 O30        -26.9690     8.9710     4.7040 o          1 7UO      -0.552100
     29 H1         -25.8300    10.9520     0.2990 ha         1 7UO       0.125000
     30 H2         -29.3450    12.5400     2.2370 ha         1 7UO       0.105000
     31 H3         -29.3710    15.6740     0.3760 h1         1 7UO       0.061700
     32 H4         -30.0630    14.7490     1.6830 h1         1 7UO       0.061700
     33 H5         -29.7340    16.3130    -1.5950 hc         1 7UO       0.080200
     34 H6         -30.4170    15.8320    -3.1740 hc         1 7UO       0.080200
     35 H7         -28.8130    13.7980    -3.0650 h1         1 7UO       0.052700
     36 H8         -28.1650    15.4040    -3.4170 h1         1 7UO       0.052700
     37 H9         -32.4420    12.8340    -0.2090 h1         1 7UO       0.054200
     38 H10        -31.5660    12.9900     1.3090 h1         1 7UO       0.054200
     39 H11        -28.5530    10.2430     2.7340 h1         1 7UO       0.075700
     40 H12        -27.0910     9.5990     1.9560 h1         1 7UO       0.075700
     41 H13        -33.8940    13.8250     1.5490 hc         1 7UO       0.043033
     42 H14        -32.7410    15.1560     1.7880 hc         1 7UO       0.043033
     43 H15        -33.6260    15.0100     0.2520 hc         1 7UO       0.043033
     44 H16        -24.9900     9.8230     9.8470 hn         1 7UO       0.389500
     45 H17        -26.5130     8.2260     7.3350 hc         1 7UO       0.105700
     46 H18        -26.9070     9.2830     8.6930 hc         1 7UO       0.105700
     47 H19        -27.7610     9.4730     7.1780 hc         1 7UO       0.105700
     48 H20        -26.3920    11.8540     3.5760 hn         1 7UO       0.319500
     49 H21        -24.5500    11.9960     4.3670 h4         1 7UO       0.086100
     50 H22        -22.4500    12.7100     8.8740 hc         1 7UO       0.155200
     51 H23        -24.0730    13.4340     8.8480 hc         1 7UO       0.155200
     52 H24        -25.9270    12.7810    -1.3670 ha         1 7UO       0.123000
     53 H25        -26.7370    14.9830    -1.7520 hn         1 7UO       0.442000
     54 C13        -32.0120    13.5650     0.4870 c3         1 7UO       0.098000
     55 O26        -23.5250    11.4830    11.0560 o          1 7UO      -0.387000
@<TRIPOS>BOND
     1     1     2 ar  
     2     1    22 ar  
     3     1    29 1   
     4     2     3 ar  
     5     2     8 1   
     6     3    20 ar  
     7     3    30 1   
     8     4    20 1   
     9     4    26 1   
    10     4    31 1   
    11     4    32 1   
    12     5     6 1   
    13     5    26 1   
    14     5    27 2   
    15     6     7 1   
    16     6    33 1   
    17     6    34 1   
    18     7    23 1   
    19     7    35 1   
    20     7    36 1   
    21     8    15 1   
    22     8    39 1   
    23     8    40 1   
    24     9    41 1   
    25     9    42 1   
    26     9    43 1   
    27     9    54 1   
    28    10    18 1   
    29    10    24 ar  
    30    10    25 2   
    31    11    14 1   
    32    11    16 ar  
    33    11    25 1   
    34    12    13 1   
    35    12    18 1   
    36    12    55 2   
    37    13    25 1   
    38    13    44 1   
    39    14    45 1   
    40    14    46 1   
    41    14    47 1   
    42    15    19 1   
    43    15    48 1   
    44    16    17 ar  
    45    16    19 1   
    46    17    24 ar  
    47    17    49 1   
    48    18    50 1   
    49    18    51 1   
    50    19    28 2   
    51    20    21 ar  
    52    21    22 ar  
    53    21    23 1   
    54    22    52 1   
    55    23    53 1   
    56    26    54 1   
    57    37    54 1   
    58    38    54 1   
@<TRIPOS>SUBSTRUCTURE
     1 7UO         1 TEMP              0 ****  ****    0 ROOT
