@<TRIPOS>MOLECULE
7UO
   55    58     1     0     0
SMALL
abcg2


@<TRIPOS>ATOM
      1 C1         -27.0750    11.1570     0.7650 ca         1 7UO      -0.051000
      2 C2         -28.0650    11.3710     1.7210 ca         1 7UO      -0.172300
      3 C3         -28.8730    12.4980     1.5920 ca         1 7UO      -0.066000
      4 C7         -29.5840    14.6390     0.4920 c3         1 7UO       0.157300
      5 C9         -30.8320    14.8560    -1.6420 c          1 7UO       0.558000
      6 C10        -29.5620    15.3570    -2.3030 c3         1 7UO      -0.160400
      7 C11        -28.5110    14.2580    -2.5450 c3         1 7UO       0.193800
      8 C15        -28.2340    10.4340     2.8910 c3         1 7UO       0.160300
      9 C16        -32.8300    14.9580     0.9960 c3         1 7UO      -0.110100
     10 C20        -24.6170    12.3800     7.7880 ca         1 7UO       0.558800
     11 C22        -25.3890    10.3650     6.7470 ca         1 7UO       0.069700
     12 C24        -23.8510    11.4120     9.7970 c          1 7UO       0.567000
     13 N25        -24.4290    10.4630     8.9680 ns         1 7UO      -0.428200
     14 C27        -25.6000     8.9040     6.8660 c3         1 7UO      -0.094800
     15 N29        -27.5430    10.9000     4.0960 ns         1 7UO      -0.479900
     16 C17        -25.7410    11.1680     5.6610 ca         1 7UO      -0.212600
     17 C18        -25.5100    12.5350     5.7240 ca         1 7UO       0.460900
     18 C23        -24.0020    12.7470     9.0890 c5         1 7UO      -0.233700
     19 C28        -26.2950    10.5370     4.4080 c          1 7UO       0.606700
     20 C4         -28.7300    13.3990     0.5410 ca         1 7UO      -0.125300
     21 C5         -27.7390    13.1650    -0.4310 ca         1 7UO       0.299000
     22 C6         -26.9190    12.0380    -0.2950 ca         1 7UO      -0.169000
     23 N12        -27.5060    14.0690    -1.4840 nu         1 7UO      -0.923200
     24 N19        -24.9490    13.1370     6.7850 nb         1 7UO      -0.612000
     25 N21        -24.8240    11.0270     7.7760 na         1 7UO       0.025200
     26 N8         -30.7830    14.5070    -0.3400 n          1 7UO      -0.410800
     27 O14        -31.8670    14.7360    -2.3100 o          1 7UO      -0.561000
     28 O30        -25.5990     9.7570     3.7640 o          1 7UO      -0.552100
     29 H1         -26.4280    10.2920     0.8440 ha         1 7UO       0.125000
     30 H2         -29.6270    12.6960     2.3470 ha         1 7UO       0.105000
     31 H3         -28.9900    15.4770     0.1370 h1         1 7UO       0.061700
     32 H4         -29.9180    14.8860     1.5000 h1         1 7UO       0.061700
     33 H5         -29.1090    16.1810    -1.7510 hc         1 7UO       0.080200
     34 H6         -29.8760    15.7420    -3.2710 hc         1 7UO       0.080200
     35 H7         -29.0170    13.3140    -2.7780 h1         1 7UO       0.052700
     36 H8         -27.9460    14.5420    -3.4320 h1         1 7UO       0.052700
     37 H9         -32.5330    13.4010    -0.4710 h1         1 7UO       0.054200
     38 H10        -31.6130    13.1710     1.0110 h1         1 7UO       0.054200
     39 H11        -29.2870    10.3300     3.1510 h1         1 7UO       0.075700
     40 H12        -27.8400     9.4490     2.6500 h1         1 7UO       0.075700
     41 H13        -33.6800    14.4730     1.4790 hc         1 7UO       0.043033
     42 H14        -32.2650    15.4930     1.7620 hc         1 7UO       0.043033
     43 H15        -33.2110    15.6860     0.2780 hc         1 7UO       0.043033
     44 H16        -24.2770     9.4630     9.0260 hn         1 7UO       0.389500
     45 H17        -24.6370     8.3880     6.9270 hc         1 7UO       0.105700
     46 H18        -26.1600     8.6840     7.7790 hc         1 7UO       0.105700
     47 H19        -26.1440     8.5230     6.0090 hc         1 7UO       0.105700
     48 H20        -28.0260    11.5510     4.6960 hn         1 7UO       0.319500
     49 H21        -25.7800    13.1730     4.8910 h4         1 7UO       0.086100
     50 H22        -23.0320    13.2320     8.9630 hc         1 7UO       0.155200
     51 H23        -24.6430    13.4210     9.6620 hc         1 7UO       0.155200
     52 H24        -26.1520    11.8550    -1.0390 ha         1 7UO       0.123000
     53 H25        -26.6200    13.8550    -1.9200 hn         1 7UO       0.442000
     54 C13        -31.9620    13.9180     0.2970 c3         1 7UO       0.098000
     55 O26        -23.3490    11.1670    10.8630 o          1 7UO      -0.387000
@<TRIPOS>BOND
     1     1     2 ar  
     2     1    22 ar  
     3     1    29 1   
     4     2     3 ar  
     5     2     8 1   
     6     3    20 ar  
     7     3    30 1   
     8     4    20 1   
     9     4    26 1   
    10     4    31 1   
    11     4    32 1   
    12     5     6 1   
    13     5    26 1   
    14     5    27 2   
    15     6     7 1   
    16     6    33 1   
    17     6    34 1   
    18     7    23 1   
    19     7    35 1   
    20     7    36 1   
    21     8    15 1   
    22     8    39 1   
    23     8    40 1   
    24     9    41 1   
    25     9    42 1   
    26     9    43 1   
    27     9    54 1   
    28    10    18 1   
    29    10    24 ar  
    30    10    25 2   
    31    11    14 1   
    32    11    16 ar  
    33    11    25 1   
    34    12    13 1   
    35    12    18 1   
    36    12    55 2   
    37    13    25 1   
    38    13    44 1   
    39    14    45 1   
    40    14    46 1   
    41    14    47 1   
    42    15    19 1   
    43    15    48 1   
    44    16    17 ar  
    45    16    19 1   
    46    17    24 ar  
    47    17    49 1   
    48    18    50 1   
    49    18    51 1   
    50    19    28 2   
    51    20    21 ar  
    52    21    22 ar  
    53    21    23 1   
    54    22    52 1   
    55    23    53 1   
    56    26    54 1   
    57    37    54 1   
    58    38    54 1   
@<TRIPOS>SUBSTRUCTURE
     1 7UO         1 TEMP              0 ****  ****    0 ROOT
