@<TRIPOS>MOLECULE
7UP
   44    47     1     0     0
SMALL
No Charge or Current Charge


@<TRIPOS>ATOM
      1 N2           8.0920    -1.5160     0.3680 nv         1 7UP      -1.032200
      2 C1           7.4350    -0.4680    -0.1590 ce         1 7UP       0.660800
      3 N1           8.1150     0.5320    -0.5420 n2         1 7UP      -0.843100
      4 C2           5.9400    -0.4790    -0.1030 ca         1 7UP      -0.190900
      5 C11          5.2100     0.7320    -0.0330 ca         1 7UP      -0.077000
      6 C10          3.8020     0.7250    -0.0180 ca         1 7UP      -0.037000
      7 C5           3.1020    -0.4970    -0.0890 ca         1 7UP      -0.029000
      8 C4           3.8170    -1.7040    -0.1790 ca         1 7UP      -0.098000
      9 C3           5.2220    -1.6950    -0.1920 ca         1 7UP      -0.088000
     10 C9           3.0880     1.9350     0.0670 ca         1 7UP      -0.096000
     11 C8           1.6820     1.9260     0.0810 ca         1 7UP      -0.088000
     12 C7           0.9830     0.7070     0.0110 ca         1 7UP       0.043000
     13 C6           1.6940    -0.5040    -0.0750 ca         1 7UP      -0.080000
     14 C12         -0.4510     0.6990     0.0250 cg         1 7UP      -0.117000
     15 C13         -1.6710     0.6790     0.0380 ch         1 7UP      -0.090000
     16 C14         -3.0950     0.6370     0.0530 ca         1 7UP       0.024000
     17 C22         -3.7670    -0.5970    -0.0070 ca         1 7UP      -0.087000
     18 C21         -5.1740    -0.6450     0.0090 ca         1 7UP      -0.064300
     19 C17         -5.9180     0.5560     0.0760 ca         1 7UP      -0.064300
     20 C16         -5.2410     1.7890     0.1380 ca         1 7UP      -0.112000
     21 C15         -3.8360     1.8300     0.1250 ca         1 7UP      -0.086000
     22 C20         -5.8890    -1.9990    -0.0800 c6         1 7UP      -0.029100
     23 C19         -7.3930    -1.9150     0.2710 c6         1 7UP       0.158800
     24 N3          -8.0200    -0.7460    -0.3810 n7         1 7UP      -0.856400
     25 C18         -7.4550     0.5330     0.1130 c6         1 7UP       0.202100
     26 H3           7.5690    -2.0520     1.0490 hn         1 7UP       0.469000
     27 H1           9.0580    -1.3230     0.6030 hn         1 7UP       0.469000
     28 H2           7.4650     1.2090    -0.9600 hn         1 7UP       0.389400
     29 H9           5.7330     1.6840     0.0280 ha         1 7UP       0.120000
     30 H5           3.2860    -2.6510    -0.2450 ha         1 7UP       0.118000
     31 H4           5.7500    -2.6430    -0.2850 ha         1 7UP       0.126000
     32 H8           3.6180     2.8840     0.1220 ha         1 7UP       0.118000
     33 H7           1.1380     2.8650     0.1480 ha         1 7UP       0.123000
     34 H6           1.1540    -1.4460    -0.1310 ha         1 7UP       0.123000
     35 H19         -3.1960    -1.5210    -0.0680 ha         1 7UP       0.117000
     36 H11         -5.8050     2.7170     0.1980 ha         1 7UP       0.113000
     37 H10         -3.3250     2.7900     0.1730 ha         1 7UP       0.120000
     38 H18         -5.7830    -2.3870    -1.1010 hc         1 7UP       0.056200
     39 H17         -5.4030    -2.7300     0.5800 hc         1 7UP       0.056200
     40 H16         -7.8980    -2.8380    -0.0500 h1         1 7UP       0.033200
     41 H15         -7.5130    -1.8310     1.3620 h1         1 7UP       0.033200
     42 H14         -9.0300    -0.7510    -0.1860 hn         1 7UP       0.414000
     43 H12         -7.7800     0.6980     1.1510 h1         1 7UP       0.040700
     44 H13         -7.8500     1.3630    -0.4920 h1         1 7UP       0.040700
@<TRIPOS>BOND
     1     1     2 1   
     2     1    26 1   
     3     1    27 1   
     4     2     3 2   
     5     2     4 1   
     6     3    28 1   
     7     4     5 ar  
     8     4     9 ar  
     9     5     6 ar  
    10     5    29 1   
    11     6     7 ar  
    12     6    10 ar  
    13     7     8 ar  
    14     7    13 ar  
    15     8     9 ar  
    16     8    30 1   
    17     9    31 1   
    18    10    11 ar  
    19    10    32 1   
    20    11    12 ar  
    21    11    33 1   
    22    12    13 ar  
    23    12    14 1   
    24    13    34 1   
    25    14    15 3   
    26    15    16 1   
    27    16    17 ar  
    28    16    21 ar  
    29    17    18 ar  
    30    17    35 1   
    31    18    19 ar  
    32    18    22 1   
    33    19    20 ar  
    34    19    25 1   
    35    20    21 ar  
    36    20    36 1   
    37    21    37 1   
    38    22    23 1   
    39    22    38 1   
    40    22    39 1   
    41    23    24 1   
    42    23    40 1   
    43    23    41 1   
    44    24    25 1   
    45    24    42 1   
    46    25    43 1   
    47    25    44 1   
@<TRIPOS>SUBSTRUCTURE
     1 7UP         1 TEMP              0 ****  ****    0 ROOT
