@<TRIPOS>MOLECULE
7UP
   44    47     1     0     0
SMALL
bcc


@<TRIPOS>ATOM
      1 N2           7.9870    -1.4550     0.5050 nv         1 7UP      -0.921800
      2 C1           7.3870    -0.3920    -0.1020 ce         1 7UP       0.660800
      3 N1           8.0880     0.5270    -0.6460 n2         1 7UP      -0.843100
      4 C2           5.8970    -0.4350    -0.1050 ca         1 7UP      -0.190900
      5 C11          5.1790     0.7310    -0.0070 ca         1 7UP      -0.095000
      6 C10          3.7700     0.7220    -0.0120 ca         1 7UP      -0.037000
      7 C5           3.0860    -0.5150    -0.1290 ca         1 7UP      -0.029000
      8 C4           3.8430    -1.7050    -0.2340 ca         1 7UP      -0.116000
      9 C3           5.2090    -1.6680    -0.2160 ca         1 7UP      -0.106000
     10 C9           3.0140     1.9140     0.1030 ca         1 7UP      -0.114000
     11 C8           1.6510     1.8810     0.0990 ca         1 7UP      -0.106000
     12 C7           0.9600     0.6440    -0.0180 ca         1 7UP       0.043000
     13 C6           1.6760    -0.5280    -0.1320 ca         1 7UP      -0.098000
     14 C12         -0.4610     0.6260    -0.0090 cg         1 7UP      -0.117000
     15 C13         -1.6690     0.6150     0.0050 ch         1 7UP      -0.090000
     16 C14         -3.0910     0.5960     0.0260 ca         1 7UP       0.024000
     17 C22         -3.7820    -0.6130    -0.0440 ca         1 7UP      -0.105000
     18 C21         -5.1710    -0.6560    -0.0210 ca         1 7UP      -0.064300
     19 C17         -5.8880     0.5390     0.0730 ca         1 7UP      -0.064300
     20 C16         -5.1970     1.7480     0.1480 ca         1 7UP      -0.130000
     21 C15         -3.8170     1.7890     0.1240 ca         1 7UP      -0.104000
     22 C20         -5.8910    -1.9760    -0.1050 c6         1 7UP      -0.029100
     23 C19         -7.3410    -1.8500     0.3290 c6         1 7UP       0.158800
     24 N3          -7.9330    -0.7160    -0.3570 n7         1 7UP      -0.801200
     25 C18         -7.3920     0.5330     0.1340 c6         1 7UP       0.202100
     26 H3           7.5000    -1.9110     1.2590 hn         1 7UP       0.413800
     27 H1           8.9830    -1.3860     0.6390 hn         1 7UP       0.413800
     28 H2           7.4970     1.1820    -1.1450 hn         1 7UP       0.389400
     29 H9           5.6910     1.6810     0.1000 ha         1 7UP       0.138000
     30 H5           3.3260    -2.6510    -0.3350 ha         1 7UP       0.136000
     31 H4           5.7700    -2.5890    -0.3080 ha         1 7UP       0.144000
     32 H8           3.5330     2.8600     0.1960 ha         1 7UP       0.136000
     33 H7           1.0810     2.7960     0.1900 ha         1 7UP       0.141000
     34 H6           1.1550    -1.4740    -0.2220 ha         1 7UP       0.141000
     35 H19         -3.2210    -1.5380    -0.1160 ha         1 7UP       0.135000
     36 H11         -5.7550     2.6740     0.2250 ha         1 7UP       0.131000
     37 H10         -3.2970     2.7360     0.1800 ha         1 7UP       0.138000
     38 H18         -5.8530    -2.3400    -1.1360 hc         1 7UP       0.056200
     39 H17         -5.3770    -2.7210     0.5060 hc         1 7UP       0.056200
     40 H16         -7.8880    -2.7540     0.0610 h1         1 7UP       0.033200
     41 H15         -7.3930    -1.7540     1.4250 h1         1 7UP       0.033200
     42 H14         -8.9360    -0.7160    -0.2240 hn         1 7UP       0.358800
     43 H12         -7.6880     0.7460     1.1750 h1         1 7UP       0.040700
     44 H13         -7.7830     1.3570    -0.4680 h1         1 7UP       0.040700
@<TRIPOS>BOND
     1     1     2 1   
     2     1    26 1   
     3     1    27 1   
     4     2     3 2   
     5     2     4 1   
     6     3    28 1   
     7     4     5 ar  
     8     4     9 ar  
     9     5     6 ar  
    10     5    29 1   
    11     6     7 ar  
    12     6    10 ar  
    13     7     8 ar  
    14     7    13 ar  
    15     8     9 ar  
    16     8    30 1   
    17     9    31 1   
    18    10    11 ar  
    19    10    32 1   
    20    11    12 ar  
    21    11    33 1   
    22    12    13 ar  
    23    12    14 1   
    24    13    34 1   
    25    14    15 3   
    26    15    16 1   
    27    16    17 ar  
    28    16    21 ar  
    29    17    18 ar  
    30    17    35 1   
    31    18    19 ar  
    32    18    22 1   
    33    19    20 ar  
    34    19    25 1   
    35    20    21 ar  
    36    20    36 1   
    37    21    37 1   
    38    22    23 1   
    39    22    38 1   
    40    22    39 1   
    41    23    24 1   
    42    23    40 1   
    43    23    41 1   
    44    24    25 1   
    45    24    42 1   
    46    25    43 1   
    47    25    44 1   
@<TRIPOS>SUBSTRUCTURE
     1 7UP         1 TEMP              0 ****  ****    0 ROOT
