@<TRIPOS>MOLECULE
7UQ
   33    34     1     0     0
SMALL
No Charge or Current Charge


@<TRIPOS>ATOM
      1 O3          32.5330    53.7530   -15.2330 os         1 7UQ      -0.344100
      2 N4          30.5490    56.5530   -17.9920 nb         1 7UQ      -0.701000
      3 C12         30.8530    51.7010   -14.1900 c3         1 7UQ      -0.022100
      4 C13         30.2470    52.3570   -12.9260 c3         1 7UQ      -0.195400
      5 C14         30.5130    53.8640   -12.8840 c          1 7UQ       0.580900
      6 C15         32.3810    51.6280   -14.1430 ca         1 7UQ      -0.041300
      7 C16         33.1910    52.6640   -14.6750 ca         1 7UQ       0.036100
      8 C17         33.1850    54.9060   -15.7890 c3         1 7UQ       0.219900
      9 C18         32.1050    55.8670   -16.2480 ca         1 7UQ      -0.183300
     10 C19         31.5170    55.7390   -17.5200 ca         1 7UQ       0.600200
     11 C20         30.1250    57.5450   -17.1780 ca         1 7UQ       0.381900
     12 C21         30.6470    57.7510   -15.8900 ca         1 7UQ      -0.187000
     13 C22         31.6550    56.9010   -15.4090 ca         1 7UQ      -0.028000
     14 C23         34.6100    52.5360   -14.6020 ca         1 7UQ       0.183000
     15 C24         35.1910    51.4050   -14.0090 ca         1 7UQ      -0.192000
     16 C25         34.3800    50.3950   -13.4850 ca         1 7UQ       0.200000
     17 C26         32.9850    50.5020   -13.5500 ca         1 7UQ      -0.162000
     18 F           31.9020    54.7650   -18.3730 f          1 7UQ      -0.224200
     19 F1          35.4490    53.4780   -15.0890 f          1 7UQ      -0.163000
     20 F2          34.9440    49.3090   -12.9140 f          1 7UQ      -0.168000
     21 O2          29.7770    54.6890   -13.4150 o          1 7UQ      -0.508100
     22 H1          30.5040    52.2300   -15.0860 hc         1 7UQ       0.061700
     23 H2          30.4450    50.6860   -14.2800 hc         1 7UQ       0.061700
     24 H3          29.1640    52.1840   -12.9210 hc         1 7UQ       0.065200
     25 H4          30.7200    51.8900   -12.0550 hc         1 7UQ       0.065200
     26 H5          31.4290    54.1770   -12.3360 h4         1 7UQ      -0.008800
     27 H6          33.8200    54.6250   -16.6390 h1         1 7UQ       0.046700
     28 H7          33.8120    55.3980   -15.0340 h1         1 7UQ       0.046700
     29 H8          29.3430    58.1940   -17.5690 h4         1 7UQ       0.028100
     30 H9          30.2670    58.5630   -15.2760 ha         1 7UQ       0.133000
     31 H10         32.0700    57.0390   -14.4120 ha         1 7UQ       0.126000
     32 H11         36.2720    51.3130   -13.9570 ha         1 7UQ       0.153000
     33 H12         32.3730    49.7060   -13.1350 ha         1 7UQ       0.140000
@<TRIPOS>BOND
     1     1     7 1   
     2     1     8 1   
     3     2    10 ar  
     4     2    11 ar  
     5     3     4 1   
     6     3     6 1   
     7     3    22 1   
     8     3    23 1   
     9     4     5 1   
    10     4    24 1   
    11     4    25 1   
    12     5    21 2   
    13     5    26 1   
    14     6     7 ar  
    15     6    17 ar  
    16     7    14 ar  
    17     8     9 1   
    18     8    27 1   
    19     8    28 1   
    20     9    10 ar  
    21     9    13 ar  
    22    10    18 1   
    23    11    12 ar  
    24    11    29 1   
    25    12    13 ar  
    26    12    30 1   
    27    13    31 1   
    28    14    15 ar  
    29    14    19 1   
    30    15    16 ar  
    31    15    32 1   
    32    16    17 ar  
    33    16    20 1   
    34    17    33 1   
@<TRIPOS>SUBSTRUCTURE
     1 7UQ         1 TEMP              0 ****  ****    0 ROOT
