@<TRIPOS>MOLECULE
7UQ
   33    34     1     0     0
SMALL
abcg2


@<TRIPOS>ATOM
      1 O3          32.4720    54.1060   -14.5920 os         1 7UQ      -0.344100
      2 N4          29.7980    56.7120   -16.7310 nb         1 7UQ      -0.701000
      3 C12         31.1380    51.5690   -14.7010 c3         1 7UQ      -0.022100
      4 C13         30.0850    51.7870   -13.5990 c3         1 7UQ      -0.195400
      5 C14         30.0820    53.1790   -13.0390 c          1 7UQ       0.580900
      6 C15         32.5570    51.7380   -14.2320 ca         1 7UQ      -0.041300
      7 C16         33.1560    52.9960   -14.2030 ca         1 7UQ       0.036100
      8 C17         32.7380    54.5160   -15.9380 c3         1 7UQ       0.219900
      9 C18         31.9300    55.7420   -16.2140 ca         1 7UQ      -0.183300
     10 C19         30.5690    55.6940   -16.4940 ca         1 7UQ       0.600200
     11 C20         30.3530    57.9240   -16.7030 ca         1 7UQ       0.381900
     12 C21         31.6940    58.1260   -16.4360 ca         1 7UQ      -0.187000
     13 C22         32.4860    57.0120   -16.1860 ca         1 7UQ      -0.028000
     14 C23         34.4580    53.1140   -13.7310 ca         1 7UQ       0.183000
     15 C24         35.1930    52.0290   -13.3010 ca         1 7UQ      -0.192000
     16 C25         34.5750    50.7940   -13.3510 ca         1 7UQ       0.200000
     17 C26         33.2800    50.6300   -13.7950 ca         1 7UQ      -0.162000
     18 F           29.9720    54.4990   -16.5420 f          1 7UQ      -0.224200
     19 F1          35.0120    54.3300   -13.6940 f          1 7UQ      -0.163000
     20 F2          35.2670    49.7180   -12.9550 f          1 7UQ      -0.168000
     21 O2          29.2020    53.9840   -13.2220 o          1 7UQ      -0.508100
     22 H1          30.9210    52.2290   -15.5400 hc         1 7UQ       0.061700
     23 H2          31.0120    50.5510   -15.0710 hc         1 7UQ       0.061700
     24 H3          29.0990    51.5590   -14.0050 hc         1 7UQ       0.065200
     25 H4          30.2860    51.0940   -12.7770 hc         1 7UQ       0.065200
     26 H5          30.9470    53.4290   -12.4000 h4         1 7UQ      -0.008800
     27 H6          32.4890    53.7100   -16.6340 h1         1 7UQ       0.046700
     28 H7          33.7990    54.7450   -16.0670 h1         1 7UQ       0.046700
     29 H8          29.6950    58.7600   -16.9050 h4         1 7UQ       0.028100
     30 H9          32.1090    59.1230   -16.4250 ha         1 7UQ       0.133000
     31 H10         33.5420    57.1260   -15.9750 ha         1 7UQ       0.126000
     32 H11         36.2070    52.1450   -12.9420 ha         1 7UQ       0.153000
     33 H12         32.8310    49.6450   -13.8130 ha         1 7UQ       0.140000
@<TRIPOS>BOND
     1     1     7 1   
     2     1     8 1   
     3     2    10 ar  
     4     2    11 ar  
     5     3     4 1   
     6     3     6 1   
     7     3    22 1   
     8     3    23 1   
     9     4     5 1   
    10     4    24 1   
    11     4    25 1   
    12     5    21 2   
    13     5    26 1   
    14     6     7 ar  
    15     6    17 ar  
    16     7    14 ar  
    17     8     9 1   
    18     8    27 1   
    19     8    28 1   
    20     9    10 ar  
    21     9    13 ar  
    22    10    18 1   
    23    11    12 ar  
    24    11    29 1   
    25    12    13 ar  
    26    12    30 1   
    27    13    31 1   
    28    14    15 ar  
    29    14    19 1   
    30    15    16 ar  
    31    15    32 1   
    32    16    17 ar  
    33    16    20 1   
    34    17    33 1   
@<TRIPOS>SUBSTRUCTURE
     1 7UQ         1 TEMP              0 ****  ****    0 ROOT
