@<TRIPOS>MOLECULE
7UR
   50    52     1     0     0
SMALL
No Charge or Current Charge


@<TRIPOS>ATOM
      1 C10         -1.9200    -2.9360    -0.1120 ca         1 7UR      -0.061000
      2 C15         -3.3750    -1.8630     2.0320 ca         1 7UR      -0.113000
      3 C17         -2.2840     0.4070     1.7820 c3         1 7UR      -0.056100
      4 C20         -3.6240     3.8200     0.3770 c          1 7UR       0.717000
      5 C24          0.8900     0.0580    -3.4530 c3         1 7UR      -0.086100
      6 C26          1.5090     1.7190     0.6310 ca         1 7UR      -0.105000
      7 C28          3.0550     2.5990     2.2880 ca         1 7UR      -0.107000
      8 C02          4.9910     0.7780    -0.3240 ca         1 7UR       0.179000
      9 C03          4.7800     0.0500    -1.4980 ca         1 7UR      -0.160000
     10 C04          3.4820    -0.1300    -1.9900 ca         1 7UR      -0.075000
     11 C05          2.3630     0.4240    -1.3250 ca         1 7UR      -0.058300
     12 C06          0.9480     0.1870    -1.9070 c3         1 7UR      -0.095400
     13 C07          0.2920    -1.0380    -1.2300 c          1 7UR       0.605100
     14 N08         -0.8270    -0.7460    -0.4630 ns         1 7UR      -0.172000
     15 C09         -1.7250    -1.5860     0.2540 ca         1 7UR      -0.047000
     16 C11         -2.8290    -3.7470     0.5930 ca         1 7UR      -0.038000
     17 C12         -3.0200    -5.1200     0.2100 cg         1 7UR       0.344000
     18 N13         -3.1750    -6.2320    -0.1100 n1         1 7UR      -0.487000
     19 C14         -3.5560    -3.2060     1.6670 ca         1 7UR      -0.074000
     20 C16         -2.4660    -1.0450     1.3340 ca         1 7UR      -0.028300
     21 C18         -3.0580     1.4080     0.8950 c3         1 7UR      -0.050400
     22 C19         -2.8120     2.8850     1.2900 c3         1 7UR      -0.211400
     23 O21         -4.7630     4.1060     0.7120 o          1 7UR      -0.735500
     24 O22         -3.1110     4.1930    -0.6670 o          1 7UR      -0.735500
     25 O23          0.7570    -2.1680    -1.3420 o          1 7UR      -0.582100
     26 C25          2.5780     1.1560    -0.1140 ca         1 7UR      -0.003000
     27 C27          1.7470     2.4310     1.8170 ca         1 7UR      -0.084000
     28 C29          4.1280     2.0510     1.5720 ca         1 7UR      -0.095000
     29 C30          3.9010     1.3300     0.3780 ca         1 7UR      -0.073000
     30 H1          -1.3830    -3.3630    -0.9560 ha         1 7UR       0.128000
     31 H2          -3.9450    -1.4580     2.8650 ha         1 7UR       0.122000
     32 H3          -2.6210     0.5250     2.8190 hc         1 7UR       0.045700
     33 H4          -1.2200     0.6690     1.7920 hc         1 7UR       0.045700
     34 H5          -0.1520     0.0750    -3.7970 hc         1 7UR       0.043033
     35 H6           1.4160     0.8920    -3.9320 hc         1 7UR       0.043033
     36 H7           1.3330    -0.8830    -3.8020 hc         1 7UR       0.043033
     37 H8           0.4780     1.6240     0.3180 ha         1 7UR       0.125000
     38 H9           3.2380     3.1510     3.2070 ha         1 7UR       0.114000
     39 H10          5.6280    -0.3800    -2.0250 ha         1 7UR       0.124000
     40 H11          3.3610    -0.7160    -2.8960 ha         1 7UR       0.114000
     41 H12          0.3290     1.0650    -1.7000 hc         1 7UR       0.074700
     42 H13         -1.0580     0.2370    -0.4160 hn         1 7UR       0.173000
     43 H14         -4.2630    -3.8230     2.2190 ha         1 7UR       0.117000
     44 H15         -2.7750     1.2670    -0.1550 hc         1 7UR       0.041700
     45 H16         -4.1310     1.1870     0.9640 hc         1 7UR       0.041700
     46 H17         -1.7360     3.0560     1.1560 hc         1 7UR       0.015200
     47 H18         -3.1470     2.9780     2.3310 hc         1 7UR       0.015200
     48 H20          0.9130     2.8550     2.3730 ha         1 7UR       0.136000
     49 H21          5.1370     2.1890     1.9540 ha         1 7UR       0.117000
     50 F01          6.2580     0.9320     0.1270 f          1 7UR      -0.187000
@<TRIPOS>BOND
     1     1    15 ar  
     2     1    16 ar  
     3     1    30 1   
     4     2    19 ar  
     5     2    20 ar  
     6     2    31 1   
     7     3    20 1   
     8     3    21 1   
     9     3    32 1   
    10     3    33 1   
    11     4    22 1   
    12     4    23 1   
    13     4    24 1   
    14     5    12 1   
    15     5    34 1   
    16     5    35 1   
    17     5    36 1   
    18     6    26 ar  
    19     6    27 ar  
    20     6    37 1   
    21     7    27 ar  
    22     7    28 ar  
    23     7    38 1   
    24     8     9 ar  
    25     8    29 ar  
    26     8    50 1   
    27     9    10 ar  
    28     9    39 1   
    29    10    11 ar  
    30    10    40 1   
    31    11    12 1   
    32    11    26 ar  
    33    12    13 1   
    34    12    41 1   
    35    13    14 1   
    36    13    25 2   
    37    14    15 1   
    38    14    42 1   
    39    15    20 ar  
    40    16    17 1   
    41    16    19 ar  
    42    17    18 3   
    43    19    43 1   
    44    21    22 1   
    45    21    44 1   
    46    21    45 1   
    47    22    46 1   
    48    22    47 1   
    49    26    29 ar  
    50    27    48 1   
    51    28    29 ar  
    52    28    49 1   
@<TRIPOS>SUBSTRUCTURE
     1 7UR         1 TEMP              0 ****  ****    0 ROOT
