@<TRIPOS>MOLECULE
7UR
   50    52     1     0     0
SMALL
abcg2


@<TRIPOS>ATOM
      1 C10         -2.0830    -2.8230    -0.4500 ca         1 7UR      -0.061000
      2 C15         -3.2800    -1.9400     1.8880 ca         1 7UR      -0.113000
      3 C17         -2.1720     0.3080     1.7030 c3         1 7UR      -0.056100
      4 C20         -3.5210     3.9030     0.8350 c          1 7UR       0.717000
      5 C24          0.9930    -0.4610    -3.2580 c3         1 7UR      -0.086100
      6 C26          1.4410     1.7910     0.5420 ca         1 7UR      -0.105000
      7 C28          2.8960     2.8090     2.1710 ca         1 7UR      -0.107000
      8 C02          4.9460     0.9160    -0.2780 ca         1 7UR       0.179000
      9 C03          4.8150     0.1390    -1.3830 ca         1 7UR      -0.160000
     10 C04          3.5220    -0.1180    -1.8830 ca         1 7UR      -0.075000
     11 C05          2.3980     0.3940    -1.2930 ca         1 7UR      -0.058300
     12 C06          1.0190     0.0960    -1.8310 c3         1 7UR      -0.095400
     13 C07          0.3180    -0.9170    -0.9300 c          1 7UR       0.605100
     14 N08         -1.0040    -0.6820    -0.7390 ns         1 7UR      -0.172000
     15 C09         -1.8460    -1.5370     0.0080 ca         1 7UR      -0.047000
     16 C11         -2.9200    -3.6690     0.2720 ca         1 7UR      -0.038000
     17 C12         -3.1620    -4.9930    -0.2000 cg         1 7UR       0.344000
     18 N13         -3.3580    -6.0640    -0.5780 n1         1 7UR      -0.487000
     19 C14         -3.5280    -3.2240     1.4450 ca         1 7UR      -0.074000
     20 C16         -2.4310    -1.0790     1.1940 ca         1 7UR      -0.028300
     21 C18         -3.0520     1.3650     1.0270 c3         1 7UR      -0.050400
     22 C19         -2.6800     2.7730     1.4580 c3         1 7UR      -0.211400
     23 O21         -3.2920     5.0530     1.2640 o          1 7UR      -0.735500
     24 O22         -4.3470     3.5920    -0.0450 o          1 7UR      -0.735500
     25 O23          0.8920    -1.8790    -0.4590 o          1 7UR      -0.582100
     26 C25          2.5430     1.2150    -0.1330 ca         1 7UR      -0.003000
     27 C27          1.6090     2.5630     1.6600 ca         1 7UR      -0.084000
     28 C29          3.9920     2.2800     1.5460 ca         1 7UR      -0.095000
     29 C30          3.8390     1.4790     0.3910 ca         1 7UR      -0.073000
     30 H1          -1.6310    -3.1610    -1.3730 ha         1 7UR       0.128000
     31 H2          -3.7420    -1.5990     2.8060 ha         1 7UR       0.122000
     32 H3          -2.3460     0.3340     2.7810 hc         1 7UR       0.045700
     33 H4          -1.1170     0.5550     1.5580 hc         1 7UR       0.045700
     34 H5          -0.0360    -0.5540    -3.6020 hc         1 7UR       0.043033
     35 H6           1.5120     0.2120    -3.9400 hc         1 7UR       0.043033
     36 H7           1.4560    -1.4450    -3.3240 hc         1 7UR       0.043033
     37 H8           0.4380     1.6330     0.1720 ha         1 7UR       0.125000
     38 H9           3.0180     3.4180     3.0560 ha         1 7UR       0.114000
     39 H10          5.6850    -0.2760    -1.8730 ha         1 7UR       0.124000
     40 H11          3.4430    -0.7420    -2.7620 ha         1 7UR       0.114000
     41 H12          0.4420     1.0260    -1.8480 hc         1 7UR       0.074700
     42 H13         -1.4070     0.1550    -1.1310 hn         1 7UR       0.173000
     43 H14         -4.1840    -3.8790     2.0010 ha         1 7UR       0.117000
     44 H15         -2.9780     1.2840    -0.0600 hc         1 7UR       0.041700
     45 H16         -4.0980     1.1590     1.2670 hc         1 7UR       0.041700
     46 H17         -1.6270     2.9640     1.2120 hc         1 7UR       0.015200
     47 H18         -2.7350     2.8560     2.5490 hc         1 7UR       0.015200
     48 H20          0.7460     2.9890     2.1550 ha         1 7UR       0.136000
     49 H21          4.9800     2.4730     1.9400 ha         1 7UR       0.117000
     50 F01          6.1680     1.1730     0.2130 f          1 7UR      -0.187000
@<TRIPOS>BOND
     1     1    15 ar  
     2     1    16 ar  
     3     1    30 1   
     4     2    19 ar  
     5     2    20 ar  
     6     2    31 1   
     7     3    20 1   
     8     3    21 1   
     9     3    32 1   
    10     3    33 1   
    11     4    22 1   
    12     4    23 1   
    13     4    24 1   
    14     5    12 1   
    15     5    34 1   
    16     5    35 1   
    17     5    36 1   
    18     6    26 ar  
    19     6    27 ar  
    20     6    37 1   
    21     7    27 ar  
    22     7    28 ar  
    23     7    38 1   
    24     8     9 ar  
    25     8    29 ar  
    26     8    50 1   
    27     9    10 ar  
    28     9    39 1   
    29    10    11 ar  
    30    10    40 1   
    31    11    12 1   
    32    11    26 ar  
    33    12    13 1   
    34    12    41 1   
    35    13    14 1   
    36    13    25 2   
    37    14    15 1   
    38    14    42 1   
    39    15    20 ar  
    40    16    17 1   
    41    16    19 ar  
    42    17    18 3   
    43    19    43 1   
    44    21    22 1   
    45    21    44 1   
    46    21    45 1   
    47    22    46 1   
    48    22    47 1   
    49    26    29 ar  
    50    27    48 1   
    51    28    29 ar  
    52    28    49 1   
@<TRIPOS>SUBSTRUCTURE
     1 7UR         1 TEMP              0 ****  ****    0 ROOT
