@<TRIPOS>MOLECULE
7UT
   41    40     1     0     0
SMALL
bcc


@<TRIPOS>ATOM
      1 C2           7.5490    13.3820    16.3070 c3         1 7UT      -0.205400
      2 C4           8.7010    11.2650    15.5080 c3         1 7UT      -0.078400
      3 C6           9.7680    10.8450    13.2160 c3         1 7UT      -0.078400
      4 C7           9.9630     9.8520    12.0770 c3         1 7UT      -0.075400
      5 C9          11.0280     9.4550     9.7760 c3         1 7UT      -0.069400
      6 C11         10.0500     8.1420     7.8350 c3         1 7UT      -0.080400
      7 C12          8.7740     7.7360     7.1250 c3         1 7UT       0.133400
      8 O1           6.1360    14.6960    14.8890 o          1 7UT      -0.848300
      9 O2           6.6410    15.4880    16.9100 o          1 7UT      -0.848300
     10 C01          7.9360     6.5300     5.3080 c3         1 7UT       0.126700
     11 C1           6.7000    14.6340    16.0000 c          1 7UT       0.928600
     12 O01          9.0790     6.9110     6.0270 os         1 7UT      -0.411600
     13 C3           7.8310    12.4600    15.1320 c3         1 7UT      -0.056400
     14 C5           8.9360    10.2830    14.3620 c3         1 7UT      -0.068400
     15 C8          10.7820    10.4260    10.9270 c3         1 7UT      -0.074400
     16 C10          9.7630     9.0260     9.0430 c3         1 7UT      -0.076400
     17 H1           7.0440    12.8170    17.1010 hc         1 7UT       0.013700
     18 H2           8.4950    13.7070    16.7550 hc         1 7UT       0.013700
     19 H3           9.6670    11.6170    15.8870 hc         1 7UT       0.024700
     20 H4           8.2300    10.7300    16.3400 hc         1 7UT       0.024700
     21 H5          10.7450    11.1600    13.5990 hc         1 7UT       0.043700
     22 H6           9.2950    11.7490    12.8180 hc         1 7UT       0.043700
     23 H7           8.9790     9.5350    11.7180 hc         1 7UT       0.031200
     24 H8          10.4530     8.9480    12.4550 hc         1 7UT       0.031200
     25 H9          11.5510     8.5680    10.1510 hc         1 7UT       0.032200
     26 H10         11.7100     9.9240     9.0590 hc         1 7UT       0.032200
     27 H11         10.5910     7.2460     8.1550 hc         1 7UT       0.047200
     28 H12         10.7030     8.6740     7.1370 hc         1 7UT       0.047200
     29 H13          8.2320     8.6350     6.7940 h1         1 7UT       0.020700
     30 H14          8.1070     7.2120     7.8280 h1         1 7UT       0.020700
     31 H16          8.2510     5.8900     4.4840 h1         1 7UT       0.024367
     32 H17          7.2240     5.9710     5.9270 h1         1 7UT       0.024367
     33 H18          7.4050     7.3940     4.8890 h1         1 7UT       0.024367
     34 H19          8.3100    13.0330    14.3330 hc         1 7UT       0.038200
     35 H20          6.8890    12.0930    14.7130 hc         1 7UT       0.038200
     36 H21          7.9670     9.9470    13.9750 hc         1 7UT       0.022200
     37 H22          9.4320     9.3870    14.7490 hc         1 7UT       0.022200
     38 H23         11.7470    10.7640    11.3170 hc         1 7UT       0.039700
     39 H24         10.2830    11.3230    10.5420 hc         1 7UT       0.039700
     40 H25          9.2140     9.9180     8.7210 hc         1 7UT       0.042200
     41 H26          9.0960     8.4910     9.7260 hc         1 7UT       0.042200
@<TRIPOS>BOND
     1     1    11 1   
     2     1    13 1   
     3     1    17 1   
     4     1    18 1   
     5     2    13 1   
     6     2    14 1   
     7     2    19 1   
     8     2    20 1   
     9     3     4 1   
    10     3    14 1   
    11     3    21 1   
    12     3    22 1   
    13     4    15 1   
    14     4    23 1   
    15     4    24 1   
    16     5    15 1   
    17     5    16 1   
    18     5    25 1   
    19     5    26 1   
    20     6     7 1   
    21     6    16 1   
    22     6    27 1   
    23     6    28 1   
    24     7    12 1   
    25     7    29 1   
    26     7    30 1   
    27     8    11 1   
    28     9    11 1   
    29    10    12 1   
    30    10    31 1   
    31    10    32 1   
    32    10    33 1   
    33    13    34 1   
    34    13    35 1   
    35    14    36 1   
    36    14    37 1   
    37    15    38 1   
    38    15    39 1   
    39    16    40 1   
    40    16    41 1   
@<TRIPOS>SUBSTRUCTURE
     1 7UT         1 TEMP              0 ****  ****    0 ROOT
