@<TRIPOS>MOLECULE
7UT
   41    40     1     0     0
SMALL
No Charge or Current Charge


@<TRIPOS>ATOM
      1 C2           7.6540    13.4280    16.5940 c3         1 7UT      -0.205400
      2 C4           8.6330    11.2540    15.6000 c3         1 7UT      -0.078400
      3 C6           9.6320    10.8970    13.2230 c3         1 7UT      -0.078400
      4 C7           9.8220     9.9010    12.0580 c3         1 7UT      -0.075400
      5 C9          10.9630     9.4820     9.7570 c3         1 7UT      -0.069400
      6 C11         10.0500     8.1150     7.7710 c3         1 7UT      -0.080400
      7 C12          8.8030     7.6720     6.9820 c3         1 7UT       0.156600
      8 O1           5.6550    14.6760    16.2960 o          1 7UT      -0.743000
      9 O2           7.5090    15.6930    15.8930 o          1 7UT      -0.743000
     10 C01          8.1810     6.3250     5.0750 c3         1 7UT       0.149900
     11 C1           6.8750    14.7100    16.2470 c          1 7UT       0.718000
     12 O01          9.2410     6.8230     5.9090 os         1 7UT      -0.458000
     13 C3           7.8530    12.5620    15.3260 c3         1 7UT      -0.056400
     14 C5           8.7740    10.3200    14.3740 c3         1 7UT      -0.068400
     15 C8          10.6750    10.4790    10.9040 c3         1 7UT      -0.074400
     16 C10          9.7120     9.0390     8.9620 c3         1 7UT      -0.076400
     17 H1           7.0800    12.8080    17.2940 hc         1 7UT       0.013700
     18 H2           8.6620    13.6760    16.9490 hc         1 7UT       0.013700
     19 H3           9.6320    11.5000    15.9830 hc         1 7UT       0.024700
     20 H4           8.1210    10.7000    16.3960 hc         1 7UT       0.024700
     21 H5          10.6150    11.1850    13.6160 hc         1 7UT       0.043700
     22 H6           9.1610    11.8070    12.8340 hc         1 7UT       0.043700
     23 H7           8.8350     9.6130    11.6770 hc         1 7UT       0.031200
     24 H8          10.3000     8.9890    12.4370 hc         1 7UT       0.031200
     25 H9          11.4660     8.5970    10.1660 hc         1 7UT       0.032200
     26 H10         11.6720     9.9510     9.0640 hc         1 7UT       0.032200
     27 H11         10.5730     7.2250     8.1430 hc         1 7UT       0.047200
     28 H12         10.7360     8.6350     7.0920 hc         1 7UT       0.047200
     29 H13          8.2820     8.5560     6.5910 h1         1 7UT       0.020700
     30 H14          8.1180     7.1310     7.6500 h1         1 7UT       0.020700
     31 H16          8.5890     5.6880     4.2810 h1         1 7UT       0.024367
     32 H17          7.4710     5.7290     5.6620 h1         1 7UT       0.024367
     33 H18          7.6350     7.1530     4.6040 h1         1 7UT       0.024367
     34 H19          8.3850    13.1570    14.5730 hc         1 7UT       0.038200
     35 H20          6.8710    12.3140    14.9010 hc         1 7UT       0.038200
     36 H21          7.7760    10.0700    13.9950 hc         1 7UT       0.022200
     37 H22          9.2250     9.3780    14.7110 hc         1 7UT       0.022200
     38 H23         11.6350    10.8190    11.3130 hc         1 7UT       0.039700
     39 H24         10.1780    11.3670    10.4940 hc         1 7UT       0.039700
     40 H25          9.1880     9.9280     8.5900 hc         1 7UT       0.042200
     41 H26          9.0190     8.5130     9.6290 hc         1 7UT       0.042200
@<TRIPOS>BOND
     1     1    11 1   
     2     1    13 1   
     3     1    17 1   
     4     1    18 1   
     5     2    13 1   
     6     2    14 1   
     7     2    19 1   
     8     2    20 1   
     9     3     4 1   
    10     3    14 1   
    11     3    21 1   
    12     3    22 1   
    13     4    15 1   
    14     4    23 1   
    15     4    24 1   
    16     5    15 1   
    17     5    16 1   
    18     5    25 1   
    19     5    26 1   
    20     6     7 1   
    21     6    16 1   
    22     6    27 1   
    23     6    28 1   
    24     7    12 1   
    25     7    29 1   
    26     7    30 1   
    27     8    11 1   
    28     9    11 1   
    29    10    12 1   
    30    10    31 1   
    31    10    32 1   
    32    10    33 1   
    33    13    34 1   
    34    13    35 1   
    35    14    36 1   
    36    14    37 1   
    37    15    38 1   
    38    15    39 1   
    39    16    40 1   
    40    16    41 1   
@<TRIPOS>SUBSTRUCTURE
     1 7UT         1 TEMP              0 ****  ****    0 ROOT
