@<TRIPOS>MOLECULE
7UU
   42    44     1     0     0
SMALL
bcc


@<TRIPOS>ATOM
      1 C1          -6.3430    -1.4570     0.0410 ca         1 7UU      -0.154000
      2 C2          -5.9610    -2.7830     0.0170 ca         1 7UU      -0.078000
      3 C3          -4.6110    -3.1280     0.0090 ca         1 7UU      -0.162000
      4 C4          -3.6500    -2.1380     0.0220 ca         1 7UU      -0.079000
      5 C5          -4.0090    -0.7860     0.0400 ca         1 7UU      -0.173800
      6 C6          -5.3670    -0.4650     0.0500 ca         1 7UU       0.194100
      7 O7          -5.8020     0.8110     0.0700 os         1 7UU      -0.343200
      8 C8          -4.9480     1.8810     0.0730 c          1 7UU       0.770800
      9 C9          -3.5550     1.6030     0.0590 cc         1 7UU      -0.435200
     10 C10         -3.0570     0.3200     0.0490 cd         1 7UU       0.301800
     11 O11         -5.4700     2.9760     0.0860 o          1 7UU      -0.584500
     12 N12         -1.7490     0.0590     0.0540 nu         1 7UU      -0.762000
     13 C13         -0.7230     1.0770     0.0510 c3         1 7UU       0.223800
     14 C14          0.6500     0.4450     0.1960 c3         1 7UU      -0.120400
     15 C15          1.7410     1.5100     0.1840 c3         1 7UU       0.102000
     16 N16          3.0640     0.9430     0.3880 n          1 7UU      -0.477800
     17 C17          3.8060     0.6200    -0.6910 c          1 7UU       0.712700
     18 C18          5.0750    -0.1330    -0.5010 cc         1 7UU      -0.147700
     19 S19          5.2640    -1.5210     0.5050 ss         1 7UU      -0.069800
     20 C20          6.8550    -1.7880    -0.0530 cc         1 7UU      -0.105100
     21 C21          7.2330    -0.8530    -0.9690 cd         1 7UU      -0.158000
     22 C22          6.2050     0.0830    -1.2400 cd         1 7UU      -0.088000
     23 O23          3.4830     0.9280    -1.8320 o          1 7UU      -0.589100
     24 C24          3.4700     0.7370     1.7660 c3         1 7UU       0.089300
     25 H1          -7.3880    -1.1780     0.0490 ha         1 7UU       0.158000
     26 H2          -6.7190    -3.5550     0.0070 ha         1 7UU       0.139000
     27 H3          -4.3140    -4.1680    -0.0080 ha         1 7UU       0.138000
     28 H4          -2.6100    -2.4370     0.0170 ha         1 7UU       0.124000
     29 H5          -2.8990     2.4600     0.0520 ha         1 7UU       0.160000
     30 H6          -1.4400    -0.8950    -0.0220 hn         1 7UU       0.438800
     31 H7          -0.7740     1.6630    -0.8740 h1         1 7UU       0.053200
     32 H8          -0.8980     1.7740     0.8770 h1         1 7UU       0.053200
     33 H9           0.6910    -0.1240     1.1290 hc         1 7UU       0.054700
     34 H10          0.8210    -0.2590    -0.6230 hc         1 7UU       0.054700
     35 H11          1.7240     2.0580    -0.7560 h1         1 7UU       0.064700
     36 H12          1.5620     2.2360     0.9800 h1         1 7UU       0.064700
     37 H14          7.4280    -2.6200     0.3270 h4         1 7UU       0.171000
     38 H16          8.2050    -0.8370    -1.4390 ha         1 7UU       0.158000
     39 H18          6.2970     0.8890    -1.9540 ha         1 7UU       0.168000
     40 H20          3.1400    -0.2230     2.1670 h1         1 7UU       0.043700
     41 H21          4.5480     0.8130     1.8770 h1         1 7UU       0.043700
     42 H22          3.0280     1.5210     2.3790 h1         1 7UU       0.043700
@<TRIPOS>BOND
     1     1     2 ar  
     2     1     6 ar  
     3     1    25 1   
     4     2     3 ar  
     5     2    26 1   
     6     3     4 ar  
     7     3    27 1   
     8     4     5 ar  
     9     4    28 1   
    10     5     6 ar  
    11     5    10 1   
    12     6     7 1   
    13     7     8 1   
    14     8     9 1   
    15     8    11 2   
    16     9    10 2   
    17     9    29 1   
    18    10    12 1   
    19    12    13 1   
    20    12    30 1   
    21    13    14 1   
    22    13    31 1   
    23    13    32 1   
    24    14    15 1   
    25    14    33 1   
    26    14    34 1   
    27    15    16 1   
    28    15    35 1   
    29    15    36 1   
    30    16    17 1   
    31    16    24 1   
    32    17    18 1   
    33    17    23 2   
    34    18    19 1   
    35    18    22 2   
    36    19    20 1   
    37    20    21 2   
    38    20    37 1   
    39    21    22 1   
    40    21    38 1   
    41    22    39 1   
    42    24    40 1   
    43    24    41 1   
    44    24    42 1   
@<TRIPOS>SUBSTRUCTURE
     1 7UU         1 TEMP              0 ****  ****    0 ROOT
