@<TRIPOS>MOLECULE
7UU
   42    44     1     0     0
SMALL
No Charge or Current Charge


@<TRIPOS>ATOM
      1 C1          -6.5040    -1.3800    -0.1520 ca         1 7UU      -0.136000
      2 C2          -6.1400    -2.7330    -0.0610 ca         1 7UU      -0.060000
      3 C3          -4.7850    -3.0810     0.0640 ca         1 7UU      -0.144000
      4 C4          -3.7960    -2.0820     0.0990 ca         1 7UU      -0.061000
      5 C5          -4.1590    -0.7180     0.0080 ca         1 7UU      -0.173800
      6 C6          -5.5180    -0.3820    -0.1170 ca         1 7UU       0.194100
      7 O7          -5.9050     0.9300    -0.2070 os         1 7UU      -0.343200
      8 C8          -5.0360     1.9840    -0.1840 c          1 7UU       0.695300
      9 C9          -3.6180     1.6550    -0.0550 cc         1 7UU      -0.485200
     10 C10         -3.1750     0.3680     0.0390 cd         1 7UU       0.301800
     11 O11         -5.4250     3.1380    -0.2670 o          1 7UU      -0.509000
     12 N12         -1.8310     0.1360     0.1580 nu         1 7UU      -0.817200
     13 C13         -0.7430     1.1240     0.2020 c3         1 7UU       0.223800
     14 C14          0.6140     0.4150     0.3550 c3         1 7UU      -0.120400
     15 C15          1.7950     1.4060     0.4090 c3         1 7UU       0.102000
     16 N16          3.1100     0.7320     0.5530 n          1 7UU      -0.410800
     17 C17          3.8920     0.4540    -0.6080 c          1 7UU       0.645700
     18 C18          5.2860    -0.0860    -0.5000 cc         1 7UU      -0.292600
     19 S19          6.2780    -0.3040     0.9470 ss         1 7UU       0.220000
     20 C20          7.6400    -0.8740    -0.0080 cc         1 7UU      -0.232000
     21 C21          7.3330    -0.8740    -1.3420 cd         1 7UU      -0.140000
     22 C22          6.0150    -0.4260    -1.6210 cd         1 7UU      -0.070000
     23 O23          3.4110     0.6630    -1.7160 o          1 7UU      -0.589100
     24 C24          3.4650     0.3180     1.9280 c3         1 7UU       0.089300
     25 H1          -7.5510    -1.1030    -0.2490 ha         1 7UU       0.140000
     26 H2          -6.9030    -3.5080    -0.0880 ha         1 7UU       0.121000
     27 H3          -4.4990    -4.1290     0.1340 ha         1 7UU       0.120000
     28 H4          -2.7560    -2.3820     0.1960 ha         1 7UU       0.106000
     29 H5          -2.9610     2.5120    -0.0400 ha         1 7UU       0.210000
     30 H6          -1.5660    -0.8450     0.2190 hn         1 7UU       0.494000
     31 H7          -0.7380     1.7210    -0.7210 h1         1 7UU       0.053200
     32 H8          -0.8910     1.8080     1.0500 h1         1 7UU       0.053200
     33 H9           0.6070    -0.1900     1.2690 hc         1 7UU       0.054700
     34 H10          0.7630    -0.2690    -0.4900 hc         1 7UU       0.054700
     35 H11          1.7900     2.0330    -0.4930 h1         1 7UU       0.064700
     36 H12          1.6530     2.0850     1.2610 h1         1 7UU       0.064700
     37 H14          8.5600    -1.1600     0.4860 h4         1 7UU       0.153000
     38 H16          8.0320    -1.1820    -2.1150 ha         1 7UU       0.140000
     39 H18          5.6240    -0.3590    -2.6340 ha         1 7UU       0.150000
     40 H20          3.7640    -0.7380     1.9390 h1         1 7UU       0.043700
     41 H21          4.2720     0.9530     2.3150 h1         1 7UU       0.043700
     42 H22          2.6000     0.4270     2.5940 h1         1 7UU       0.043700
@<TRIPOS>BOND
     1     1     2 ar  
     2     1     6 ar  
     3     1    25 1   
     4     2     3 ar  
     5     2    26 1   
     6     3     4 ar  
     7     3    27 1   
     8     4     5 ar  
     9     4    28 1   
    10     5     6 ar  
    11     5    10 1   
    12     6     7 1   
    13     7     8 1   
    14     8     9 1   
    15     8    11 2   
    16     9    10 2   
    17     9    29 1   
    18    10    12 1   
    19    12    13 1   
    20    12    30 1   
    21    13    14 1   
    22    13    31 1   
    23    13    32 1   
    24    14    15 1   
    25    14    33 1   
    26    14    34 1   
    27    15    16 1   
    28    15    35 1   
    29    15    36 1   
    30    16    17 1   
    31    16    24 1   
    32    17    18 1   
    33    17    23 2   
    34    18    19 1   
    35    18    22 2   
    36    19    20 1   
    37    20    21 2   
    38    20    37 1   
    39    21    22 1   
    40    21    38 1   
    41    22    39 1   
    42    24    40 1   
    43    24    41 1   
    44    24    42 1   
@<TRIPOS>SUBSTRUCTURE
     1 7UU         1 TEMP              0 ****  ****    0 ROOT
