@<TRIPOS>MOLECULE
7UW
   33    34     1     0     0
SMALL
abcg2


@<TRIPOS>ATOM
      1 O3          32.2320    53.9490   -14.4180 os         1 7UW      -0.346100
      2 N4          30.0580    57.4750   -17.1740 nb         1 7UW      -0.700000
      3 C12         31.2230    51.3140   -14.9650 c3         1 7UW      -0.022100
      4 C13         29.9700    51.1490   -14.0880 c3         1 7UW      -0.198400
      5 C14         29.6600    52.3780   -13.2890 c          1 7UW       0.576900
      6 C15         32.4730    51.5790   -14.1690 ca         1 7UW      -0.044300
      7 C16         32.9240    52.8770   -13.9450 ca         1 7UW       0.037100
      8 C17         32.7150    54.4890   -15.6360 c3         1 7UW       0.200900
      9 C18         31.7670    55.5340   -16.1390 ca         1 7UW      -0.031300
     10 C19         32.1880    56.3990   -17.1500 ca         1 7UW      -0.185000
     11 C20         31.3050    57.3420   -17.6310 ca         1 7UW       0.368900
     12 C21         29.6930    56.6550   -16.2340 ca         1 7UW       0.573200
     13 C22         30.4740    55.6630   -15.6600 ca         1 7UW      -0.170000
     14 C23         34.0690    53.0730   -13.1800 ca         1 7UW       0.188000
     15 C24         34.7720    52.0300   -12.6170 ca         1 7UW      -0.191000
     16 C25         34.2920    50.7540   -12.8470 ca         1 7UW       0.202000
     17 C26         33.1680    50.5110   -13.6060 ca         1 7UW      -0.163000
     18 F           28.4400    56.8000   -15.7940 f          1 7UW      -0.222200
     19 F1          34.4910    54.3250   -12.9750 f          1 7UW      -0.159000
     20 F2          34.9490    49.7190   -12.3060 f          1 7UW      -0.166000
     21 O2          28.6720    53.0560   -13.4340 o          1 7UW      -0.511100
     22 H1          31.0480    52.1000   -15.7000 hc         1 7UW       0.060700
     23 H2          31.3540    50.3890   -15.5260 hc         1 7UW       0.060700
     24 H3          29.1160    50.8960   -14.7170 hc         1 7UW       0.068700
     25 H4          30.1360    50.3260   -13.3860 hc         1 7UW       0.068700
     26 H5          30.4090    52.6370   -12.5200 h4         1 7UW      -0.006800
     27 H6          32.8130    53.7030   -16.3950 h1         1 7UW       0.049700
     28 H7          33.7080    54.9310   -15.5030 h1         1 7UW       0.049700
     29 H8          33.1910    56.3410   -17.5530 ha         1 7UW       0.127000
     30 H9          31.6060    58.0280   -18.4130 h4         1 7UW       0.027100
     31 H10         30.0720    55.0320   -14.8810 ha         1 7UW       0.162000
     32 H11         35.6560    52.2080   -12.0180 ha         1 7UW       0.156000
     33 H12         32.8280    49.4950   -13.7650 ha         1 7UW       0.140000
@<TRIPOS>BOND
     1     1     7 1   
     2     1     8 1   
     3     2    11 ar  
     4     2    12 ar  
     5     3     4 1   
     6     3     6 1   
     7     3    22 1   
     8     3    23 1   
     9     4     5 1   
    10     4    24 1   
    11     4    25 1   
    12     5    21 2   
    13     5    26 1   
    14     6     7 ar  
    15     6    17 ar  
    16     7    14 ar  
    17     8     9 1   
    18     8    27 1   
    19     8    28 1   
    20     9    10 ar  
    21     9    13 ar  
    22    10    11 ar  
    23    10    29 1   
    24    11    30 1   
    25    12    13 ar  
    26    12    18 1   
    27    13    31 1   
    28    14    15 ar  
    29    14    19 1   
    30    15    16 ar  
    31    15    32 1   
    32    16    17 ar  
    33    16    20 1   
    34    17    33 1   
@<TRIPOS>SUBSTRUCTURE
     1 7UW         1 TEMP              0 ****  ****    0 ROOT
