@<TRIPOS>MOLECULE
7UW
   33    34     1     0     0
SMALL
No Charge or Current Charge


@<TRIPOS>ATOM
      1 O3          32.3790    53.6640   -14.9240 os         1 7UW      -0.346100
      2 N4          29.8260    57.1700   -17.3940 nb         1 7UW      -0.700000
      3 C12         31.2140    51.0620   -15.0180 c3         1 7UW      -0.022100
      4 C13         29.9620    51.1640   -14.1160 c3         1 7UW      -0.198400
      5 C14         29.6640    52.6110   -13.7180 c          1 7UW       0.576900
      6 C15         32.5100    51.3670   -14.2630 ca         1 7UW      -0.044300
      7 C16         33.0670    52.6710   -14.2360 ca         1 7UW       0.037100
      8 C17         32.7880    55.0410   -15.0010 c3         1 7UW       0.200900
      9 C18         31.7590    55.7920   -15.8340 ca         1 7UW      -0.031300
     10 C19         31.9750    56.0650   -17.1980 ca         1 7UW      -0.185000
     11 C20         30.9920    56.7510   -17.9330 ca         1 7UW       0.368900
     12 C21         29.6250    56.9010   -16.0860 ca         1 7UW       0.573200
     13 C22         30.5470    56.2280   -15.2730 ca         1 7UW      -0.170000
     14 C23         34.2780    52.8890   -13.5120 ca         1 7UW       0.188000
     15 C24         34.9020    51.8290   -12.8380 ca         1 7UW      -0.191000
     16 C25         34.3390    50.5510   -12.8700 ca         1 7UW       0.202000
     17 C26         33.1530    50.3180   -13.5760 ca         1 7UW      -0.163000
     18 F           28.4500    57.3340   -15.5820 f          1 7UW      -0.222200
     19 F1          34.8710    54.1020   -13.4400 f          1 7UW      -0.159000
     20 F2          34.9430    49.5350   -12.2170 f          1 7UW      -0.166000
     21 O2          28.9790    53.3660   -14.3990 o          1 7UW      -0.511100
     22 H1          31.0950    51.7150   -15.8920 hc         1 7UW       0.060700
     23 H2          31.2640    50.0440   -15.4260 hc         1 7UW       0.060700
     24 H3          29.1000    50.7550   -14.6570 hc         1 7UW       0.068700
     25 H4          30.1630    50.5830   -13.2080 hc         1 7UW       0.068700
     26 H5          30.1150    52.9490   -12.7590 h4         1 7UW      -0.006800
     27 H6          33.7750    55.1280   -15.4750 h1         1 7UW       0.049700
     28 H7          32.8380    55.4900   -14.0010 h1         1 7UW       0.049700
     29 H8          32.8900    55.7480   -17.6910 ha         1 7UW       0.127000
     30 H9          31.1440    56.9690   -18.9900 h4         1 7UW       0.027100
     31 H10         30.3100    56.0460   -14.2290 ha         1 7UW       0.162000
     32 H11         35.8230    52.0020   -12.2880 ha         1 7UW       0.156000
     33 H12         32.7310    49.3160   -13.5870 ha         1 7UW       0.140000
@<TRIPOS>BOND
     1     1     7 1   
     2     1     8 1   
     3     2    11 ar  
     4     2    12 ar  
     5     3     4 1   
     6     3     6 1   
     7     3    22 1   
     8     3    23 1   
     9     4     5 1   
    10     4    24 1   
    11     4    25 1   
    12     5    21 2   
    13     5    26 1   
    14     6     7 ar  
    15     6    17 ar  
    16     7    14 ar  
    17     8     9 1   
    18     8    27 1   
    19     8    28 1   
    20     9    10 ar  
    21     9    13 ar  
    22    10    11 ar  
    23    10    29 1   
    24    11    30 1   
    25    12    13 ar  
    26    12    18 1   
    27    13    31 1   
    28    14    15 ar  
    29    14    19 1   
    30    15    16 ar  
    31    15    32 1   
    32    16    17 ar  
    33    16    20 1   
    34    17    33 1   
@<TRIPOS>SUBSTRUCTURE
     1 7UW         1 TEMP              0 ****  ****    0 ROOT
