@<TRIPOS>MOLECULE
7UX
   40    42     1     0     0
SMALL
abcg2


@<TRIPOS>ATOM
      1 C1           6.9350     0.6380     0.0750 ca         1 7UX      -0.106000
      2 C2           5.9640     1.6250     0.1690 ca         1 7UX      -0.107500
      3 C3           6.5500    -0.6920    -0.0430 ca         1 7UX      -0.107500
      4 C4           4.6190     1.2870     0.1540 ca         1 7UX      -0.099500
      5 C5           5.2070    -1.0330    -0.0700 ca         1 7UX      -0.099500
      6 C6           2.2280    -1.5860     0.4250 cc         1 7UX       0.313900
      7 C7           4.2220    -0.0470     0.0350 ca         1 7UX      -0.001000
      8 C8           2.8110    -0.4210     0.0330 cd         1 7UX      -0.179000
      9 C9           0.3870    -0.5700    -0.1630 cd         1 7UX       0.583300
     10 C10         -2.0250    -1.0420    -0.0080 c          1 7UX       0.608100
     11 C11         -4.5050    -1.3560    -0.3480 c6         1 7UX      -0.068400
     12 C12         -3.6310     0.7290     0.7130 c6         1 7UX      -0.068400
     13 C13         -5.8140    -0.6210    -0.5890 c6         1 7UX       0.164300
     14 C14         -4.9770     1.3770     0.4310 c6         1 7UX       0.164300
     15 C15         -3.3450    -0.3700    -0.3200 c6         1 7UX      -0.145700
     16 N17          0.8710    -1.6680     0.3120 nc         1 7UX      -0.652000
     17 N18         -6.0460     0.3990     0.4160 n3         1 7UX      -0.711600
     18 N19         -0.9380    -0.2920    -0.3990 ns         1 7UX      -0.489400
     19 O20         -1.9230    -2.1050     0.5600 o          1 7UX      -0.512100
     20 S21          1.5670     0.6580    -0.5150 ss         1 7UX      -0.106400
     21 H1           7.9840     0.9020     0.0900 ha         1 7UX       0.114000
     22 H2           6.2500     2.6650     0.2630 ha         1 7UX       0.114500
     23 H3           7.2990    -1.4680    -0.1260 ha         1 7UX       0.114500
     24 H4           3.8770     2.0700     0.2520 ha         1 7UX       0.116000
     25 H5           4.9240    -2.0710    -0.1900 ha         1 7UX       0.116000
     26 H6           2.7710    -2.4290     0.8290 h4         1 7UX       0.046100
     27 H7          -4.5600    -1.8970     0.5990 hc         1 7UX       0.060950
     28 H8          -4.3610    -2.0960    -1.1380 hc         1 7UX       0.060950
     29 H9          -2.8570     1.4990     0.6940 hc         1 7UX       0.060950
     30 H10         -3.6360     0.2960     1.7170 hc         1 7UX       0.060950
     31 H11         -5.8080    -0.1890    -1.6070 h1         1 7UX       0.032200
     32 H12         -6.6410    -1.3340    -0.5590 h1         1 7UX       0.032200
     33 H13         -5.1870     2.1160     1.2080 h1         1 7UX       0.032200
     34 H14         -4.9190     1.9310    -0.5240 h1         1 7UX       0.032200
     35 H15         -3.2700     0.1100    -1.3040 hc         1 7UX       0.053700
     36 H16         -8.1300     0.2920     0.2860 h1         1 7UX       0.031700
     37 H17         -7.5040     1.7640     1.0280 h1         1 7UX       0.031700
     38 H18         -7.4230     1.5610    -0.7280 h1         1 7UX       0.031700
     39 H20         -1.1390     0.5710    -0.8830 hn         1 7UX       0.327500
     40 C16         -7.3310     1.0340     0.2350 c3         1 7UX       0.152100
@<TRIPOS>BOND
     1     1     2 ar  
     2     1     3 ar  
     3     1    21 1   
     4     2     4 ar  
     5     2    22 1   
     6     3     5 ar  
     7     3    23 1   
     8     4     7 ar  
     9     4    24 1   
    10     5     7 ar  
    11     5    25 1   
    12     6     8 2   
    13     6    16 1   
    14     6    26 1   
    15     7     8 1   
    16     8    20 1   
    17     9    16 2   
    18     9    18 1   
    19     9    20 1   
    20    10    15 1   
    21    10    18 1   
    22    10    19 2   
    23    11    13 1   
    24    11    15 1   
    25    11    27 1   
    26    11    28 1   
    27    12    14 1   
    28    12    15 1   
    29    12    29 1   
    30    12    30 1   
    31    13    17 1   
    32    13    31 1   
    33    13    32 1   
    34    14    17 1   
    35    14    33 1   
    36    14    34 1   
    37    15    35 1   
    38    17    40 1   
    39    18    39 1   
    40    36    40 1   
    41    37    40 1   
    42    38    40 1   
@<TRIPOS>SUBSTRUCTURE
     1 7UX         1 TEMP              0 ****  ****    0 ROOT
