@<TRIPOS>MOLECULE
7UX
   40    42     1     0     0
SMALL
No Charge or Current Charge


@<TRIPOS>ATOM
      1 C1           7.1140     0.3440    -0.4460 ca         1 7UX      -0.106000
      2 C2           6.1780     1.2430    -0.9790 ca         1 7UX      -0.107500
      3 C3           6.6710    -0.7780     0.2710 ca         1 7UX      -0.107500
      4 C4           4.8020     1.0220    -0.7950 ca         1 7UX      -0.099500
      5 C5           5.2950    -1.0000     0.4550 ca         1 7UX      -0.099500
      6 C6           2.3040    -1.3850     0.7950 cc         1 7UX       0.313900
      7 C7           4.3400    -0.1030    -0.0750 ca         1 7UX      -0.001000
      8 C8           2.8930    -0.3390     0.1200 cd         1 7UX      -0.179000
      9 C9           0.4560    -0.3290     0.1940 cd         1 7UX       0.583300
     10 C10         -1.9720    -0.7110     0.5130 c          1 7UX       0.608100
     11 C11         -4.1990    -0.9480    -0.7850 c6         1 7UX      -0.068400
     12 C12         -4.1270     0.4170     1.3970 c6         1 7UX      -0.068400
     13 C13         -5.5400    -0.2480    -1.1160 c6         1 7UX       0.164300
     14 C14         -5.4720     1.0600     0.9750 c6         1 7UX       0.164300
     15 C15         -3.3330    -0.0740     0.1590 c6         1 7UX      -0.145700
     16 N17          0.9320    -1.3800     0.8370 nc         1 7UX      -0.652000
     17 N18         -6.2780     0.1450     0.1180 n3         1 7UX      -0.711600
     18 N19         -0.8720    -0.0270     0.0490 ns         1 7UX      -0.489400
     19 O20         -1.9110    -1.7460     1.1590 o          1 7UX      -0.512100
     20 S21          1.6600     0.7400    -0.5140 ss         1 7UX      -0.106400
     21 H1           8.1790     0.5150    -0.5890 ha         1 7UX       0.114000
     22 H2           6.5180     2.1140    -1.5350 ha         1 7UX       0.114500
     23 H3           7.3940    -1.4770     0.6850 ha         1 7UX       0.114500
     24 H4           4.1020     1.7370    -1.2190 ha         1 7UX       0.116000
     25 H5           4.9830    -1.8770     1.0150 ha         1 7UX       0.116000
     26 H6           2.8140    -2.2020     1.2890 h4         1 7UX       0.046100
     27 H7          -4.4050    -1.9170    -0.3100 hc         1 7UX       0.060950
     28 H8          -3.6540    -1.1630    -1.7150 hc         1 7UX       0.060950
     29 H9          -3.5330     1.1420     1.9700 hc         1 7UX       0.060950
     30 H10         -4.3280    -0.4280     2.0700 hc         1 7UX       0.060950
     31 H11         -5.3380     0.6400    -1.7340 h1         1 7UX       0.032200
     32 H12         -6.1520    -0.9310    -1.7240 h1         1 7UX       0.032200
     33 H13         -6.0340     1.3250     1.8830 h1         1 7UX       0.032200
     34 H14         -5.2670     1.9980     0.4380 h1         1 7UX       0.032200
     35 H15         -3.0970     0.8320    -0.4160 hc         1 7UX       0.053700
     36 H16         -8.2120    -0.0240    -0.7610 h1         1 7UX       0.031700
     37 H17         -8.1630     0.9180     0.7440 h1         1 7UX       0.031700
     38 H18         -7.5370     1.6240    -0.7660 h1         1 7UX       0.031700
     39 H20         -1.0930     0.8110    -0.4680 hn         1 7UX       0.327500
     40 C16         -7.6170     0.6960    -0.1830 c3         1 7UX       0.152100
@<TRIPOS>BOND
     1     1     2 ar  
     2     1     3 ar  
     3     1    21 1   
     4     2     4 ar  
     5     2    22 1   
     6     3     5 ar  
     7     3    23 1   
     8     4     7 ar  
     9     4    24 1   
    10     5     7 ar  
    11     5    25 1   
    12     6     8 2   
    13     6    16 1   
    14     6    26 1   
    15     7     8 1   
    16     8    20 1   
    17     9    16 2   
    18     9    18 1   
    19     9    20 1   
    20    10    15 1   
    21    10    18 1   
    22    10    19 2   
    23    11    13 1   
    24    11    15 1   
    25    11    27 1   
    26    11    28 1   
    27    12    14 1   
    28    12    15 1   
    29    12    29 1   
    30    12    30 1   
    31    13    17 1   
    32    13    31 1   
    33    13    32 1   
    34    14    17 1   
    35    14    33 1   
    36    14    34 1   
    37    15    35 1   
    38    17    40 1   
    39    18    39 1   
    40    36    40 1   
    41    37    40 1   
    42    38    40 1   
@<TRIPOS>SUBSTRUCTURE
     1 7UX         1 TEMP              0 ****  ****    0 ROOT
