@<TRIPOS>MOLECULE
7UY
   63    65     1     0     0
SMALL
abcg2


@<TRIPOS>ATOM
      1 C4          -0.1070     4.9230    -0.2680 ca         1 7UY      -0.043000
      2 C5          -0.7500     3.7600     0.1270 ca         1 7UY      -0.145300
      3 C6          -0.4470     3.1270     1.4620 c3         1 7UY       0.164300
      4 C7          -3.2280     1.3890    -1.1240 c3         1 7UY       0.160600
      5 C8          -3.9320     0.3350    -0.2970 c3         1 7UY      -0.083400
      6 C10         -5.6120    -1.5670    -0.3370 c3         1 7UY      -0.053400
      7 C13         -0.3950     0.6410     1.8240 c3         1 7UY       0.126700
      8 C15          2.3850     0.7300     0.7240 ca         1 7UY      -0.116600
      9 C17          2.4080     0.1810    -0.5550 ca         1 7UY      -0.082000
     10 C20          4.0780    -0.8450     1.3970 ca         1 7UY      -0.105500
     11 C21          4.9760    -2.5510    -0.1790 cc         1 7UY      -0.053000
     12 C22          6.2060    -2.8180     0.4990 cc         1 7UY      -0.118000
     13 C24          6.8410    -3.9260     0.0350 cd         1 7UY      -0.253000
     14 C26          0.0610     0.2720     3.2310 c3         1 7UY      -0.107100
     15 O3           2.1270     3.0430     0.8150 o          1 7UY      -0.612100
     16 C14          1.5740     1.9620     0.9800 c          1 7UY       0.608700
     17 C18          3.2500    -0.8760    -0.8500 ca         1 7UY      -0.105500
     18 C19          4.0940    -1.4160     0.1240 ca         1 7UY      -0.008000
     19 C23          4.7260    -3.4900    -1.1430 cd         1 7UY      -0.235000
     20 S            5.9570    -4.6720    -1.2290 ss         1 7UY       0.202000
     21 C16          3.2440     0.2230     1.6900 ca         1 7UY      -0.082000
     22 N            0.2780     1.8590     1.3320 n          1 7UY      -0.392800
     23 C25         -0.3660    -0.5560     0.8820 c3         1 7UY      -0.107100
     24 C3          -0.3470     5.5050    -1.5080 ca         1 7UY      -0.164000
     25 C2          -1.2400     4.8980    -2.3740 ca         1 7UY      -0.068000
     26 C1          -1.9090     3.7380    -2.0020 ca         1 7UY      -0.211000
     27 C           -1.6810     3.1760    -0.7480 ca         1 7UY       0.172100
     28 O           -2.3170     2.0840    -0.2880 os         1 7UY      -0.356100
     29 C9          -4.8280    -0.5490    -1.1570 c3         1 7UY      -0.079400
     30 C11         -6.4630    -2.4840    -1.2010 c3         1 7UY      -0.205400
     31 C12         -7.2930    -3.5420    -0.4520 c          1 7UY       0.718000
     32 O1          -8.0420    -4.2490    -1.1600 o          1 7UY      -0.741000
     33 O2          -7.1560    -3.6230     0.7840 o          1 7UY      -0.741000
     34 H3           0.6040     5.3770     0.4090 ha         1 7UY       0.120000
     35 H5           0.1280     3.8280     2.0670 h1         1 7UY       0.054700
     36 H4          -1.3670     2.9240     2.0100 h1         1 7UY       0.054700
     37 H6          -2.6890     0.9320    -1.9630 h1         1 7UY       0.031200
     38 H7          -3.9690     2.0780    -1.5460 h1         1 7UY       0.031200
     39 H8          -3.1920    -0.2860     0.2160 hc         1 7UY       0.049200
     40 H9          -4.5290     0.8230     0.4790 hc         1 7UY       0.049200
     41 H13         -4.9160    -2.1640     0.2600 hc         1 7UY       0.040200
     42 H12         -6.2470    -1.0380     0.3800 hc         1 7UY       0.040200
     43 H16         -1.4410     0.9330     1.8890 h1         1 7UY       0.068700
     44 H18          1.7590     0.5760    -1.3270 ha         1 7UY       0.120500
     45 H20          4.7160    -1.2390     2.1770 ha         1 7UY       0.112500
     46 H21          6.6120    -2.1970     1.2860 ha         1 7UY       0.134000
     47 H23          7.7840    -4.3350     0.3630 h4         1 7UY       0.147000
     48 H28          1.0900    -0.0880     3.2410 hc         1 7UY       0.043700
     49 H27         -0.0110     1.1260     3.9060 hc         1 7UY       0.043700
     50 H29         -0.5700    -0.5230     3.6280 hc         1 7UY       0.043700
     51 H19          3.2610    -1.2730    -1.8570 ha         1 7UY       0.112500
     52 H22          3.8660    -3.5600    -1.7930 h4         1 7UY       0.154000
     53 H17          3.2610     0.6520     2.6840 ha         1 7UY       0.120500
     54 H26         -1.1530    -1.2470     1.1860 hc         1 7UY       0.043700
     55 H25         -0.5690    -0.2560    -0.1460 hc         1 7UY       0.043700
     56 H24          0.5710    -1.1090     0.9090 hc         1 7UY       0.043700
     57 H2           0.1670     6.4130    -1.7930 ha         1 7UY       0.109000
     58 H1          -1.4290     5.3230    -3.3520 ha         1 7UY       0.104000
     59 H           -2.6050     3.2900    -2.6990 ha         1 7UY       0.118000
     60 H11         -5.5260     0.0750    -1.7250 hc         1 7UY       0.026700
     61 H10         -4.2140    -1.0710    -1.9000 hc         1 7UY       0.026700
     62 H14         -7.1440    -1.8850    -1.8170 hc         1 7UY       0.015200
     63 H15         -5.8200    -3.0070    -1.9200 hc         1 7UY       0.015200
@<TRIPOS>BOND
     1     1     2 ar  
     2     1    24 ar  
     3     1    34 1   
     4     2     3 1   
     5     2    27 ar  
     6     3    22 1   
     7     3    35 1   
     8     3    36 1   
     9     4     5 1   
    10     4    28 1   
    11     4    37 1   
    12     4    38 1   
    13     5    29 1   
    14     5    39 1   
    15     5    40 1   
    16     6    29 1   
    17     6    30 1   
    18     6    41 1   
    19     6    42 1   
    20     7    14 1   
    21     7    22 1   
    22     7    23 1   
    23     7    43 1   
    24     8     9 ar  
    25     8    16 1   
    26     8    21 ar  
    27     9    17 ar  
    28     9    44 1   
    29    10    18 ar  
    30    10    21 ar  
    31    10    45 1   
    32    11    12 1   
    33    11    18 1   
    34    11    19 2   
    35    12    13 2   
    36    12    46 1   
    37    13    20 1   
    38    13    47 1   
    39    14    48 1   
    40    14    49 1   
    41    14    50 1   
    42    15    16 2   
    43    16    22 1   
    44    17    18 ar  
    45    17    51 1   
    46    19    20 1   
    47    19    52 1   
    48    21    53 1   
    49    23    54 1   
    50    23    55 1   
    51    23    56 1   
    52    24    25 ar  
    53    24    57 1   
    54    25    26 ar  
    55    25    58 1   
    56    26    27 ar  
    57    26    59 1   
    58    27    28 1   
    59    29    60 1   
    60    29    61 1   
    61    30    31 1   
    62    30    62 1   
    63    30    63 1   
    64    31    32 1   
    65    31    33 1   
@<TRIPOS>SUBSTRUCTURE
     1 7UY         1 TEMP              0 ****  ****    0 ROOT
