@<TRIPOS>MOLECULE
7UY
   63    65     1     0     0
SMALL
No Charge or Current Charge


@<TRIPOS>ATOM
      1 C4           0.1570     3.6120    -1.4800 ca         1 7UY      -0.043000
      2 C5          -0.7930     2.8530    -0.7680 ca         1 7UY      -0.145300
      3 C6          -0.4490     2.3790     0.6410 c3         1 7UY       0.164300
      4 C7          -4.1900     1.3450    -1.2250 c3         1 7UY       0.160600
      5 C8          -4.9040     0.4930    -0.1590 c3         1 7UY      -0.083400
      6 C10         -6.9870    -0.9070     0.4270 c3         1 7UY      -0.053400
      7 C13          0.0280    -0.0090     0.0530 c3         1 7UY       0.126700
      8 C15          2.7510     0.5020     1.5730 ca         1 7UY      -0.116600
      9 C17          3.3970     0.4700     0.3220 ca         1 7UY      -0.082000
     10 C20          4.6110    -0.7740     2.5140 ca         1 7UY      -0.105500
     11 C21          6.5450    -1.5500     1.1180 cc         1 7UY      -0.053000
     12 C22          7.2840    -2.2040     2.1440 cc         1 7UY      -0.118000
     13 C24          8.4470    -2.7880     1.7190 cd         1 7UY      -0.253000
     14 C26          0.2120    -1.2810     0.9170 c3         1 7UY      -0.107100
     15 O3           1.2060     1.8350     2.7970 o          1 7UY      -0.612100
     16 C14          1.4340     1.2210     1.7590 c          1 7UY       0.608700
     17 C18          4.6240    -0.1950     0.1640 ca         1 7UY      -0.105500
     18 C19          5.2540    -0.8380     1.2570 ca         1 7UY      -0.008000
     19 C23          7.1640    -1.6480    -0.1100 cd         1 7UY      -0.235000
     20 S            8.6860    -2.5500    -0.0160 ss         1 7UY       0.202000
     21 C16          3.3840    -0.1070     2.6720 ca         1 7UY      -0.082000
     22 N            0.5300     1.2630     0.6700 n          1 7UY      -0.392800
     23 C25          0.5340    -0.2380    -1.3880 c3         1 7UY      -0.107100
     24 C3          -0.1190     4.0540    -2.7830 ca         1 7UY      -0.164000
     25 C2          -1.3450     3.7410    -3.3880 ca         1 7UY      -0.068000
     26 C1          -2.2980     2.9830    -2.6880 ca         1 7UY      -0.211000
     27 C           -2.0290     2.5350    -1.3750 ca         1 7UY       0.172100
     28 O           -2.9420     1.7800    -0.6630 os         1 7UY      -0.356100
     29 C9          -6.2680    -0.0510    -0.6390 c3         1 7UY      -0.079400
     30 C11         -8.3540    -1.4540    -0.0520 c3         1 7UY      -0.205400
     31 C12         -9.0110    -2.2940     1.0590 c          1 7UY       0.718000
     32 O1          -9.7240    -1.7220     1.8690 o          1 7UY      -0.741000
     33 O2          -8.7510    -3.4860     1.1100 o          1 7UY      -0.741000
     34 H3           1.1130     3.8560    -1.0210 ha         1 7UY       0.120000
     35 H5          -0.0360     3.2400     1.1820 h1         1 7UY       0.054700
     36 H4          -1.3540     2.0730     1.1830 h1         1 7UY       0.054700
     37 H6          -4.0200     0.7390    -2.1240 h1         1 7UY       0.031200
     38 H7          -4.8180     2.2060    -1.4910 h1         1 7UY       0.031200
     39 H8          -4.2560    -0.3470     0.1200 hc         1 7UY       0.049200
     40 H9          -5.0530     1.1010     0.7430 hc         1 7UY       0.049200
     41 H13         -6.3410    -1.7480     0.7090 hc         1 7UY       0.040200
     42 H12         -7.1370    -0.3040     1.3320 hc         1 7UY       0.040200
     43 H16         -1.0600     0.1030    -0.0380 h1         1 7UY       0.068700
     44 H18          2.9620     0.9870    -0.5300 ha         1 7UY       0.120500
     45 H20          5.0520    -1.2400     3.3880 ha         1 7UY       0.112500
     46 H21          6.9590    -2.2400     3.1790 ha         1 7UY       0.134000
     47 H23          9.1770    -3.3390     2.3010 h4         1 7UY       0.147000
     48 H28          1.2610    -1.5960     0.9620 hc         1 7UY       0.043700
     49 H27         -0.1520    -1.1160     1.9380 hc         1 7UY       0.043700
     50 H29         -0.3620    -2.1120     0.4890 hc         1 7UY       0.043700
     51 H19          5.0760    -0.1860    -0.8220 ha         1 7UY       0.112500
     52 H22          6.8530    -1.2670    -1.0730 h4         1 7UY       0.154000
     53 H17          2.9160    -0.0780     3.6540 ha         1 7UY       0.120500
     54 H26         -0.0710    -1.0080    -1.8810 hc         1 7UY       0.043700
     55 H25          0.4590     0.6780    -1.9850 hc         1 7UY       0.043700
     56 H24          1.5740    -0.5800    -1.4030 hc         1 7UY       0.043700
     57 H2           0.6210     4.6390    -3.3260 ha         1 7UY       0.109000
     58 H1          -1.5560     4.0840    -4.3990 ha         1 7UY       0.104000
     59 H           -3.2390     2.7550    -3.1810 ha         1 7UY       0.118000
     60 H11         -6.9120     0.7910    -0.9200 hc         1 7UY       0.026700
     61 H10         -6.1150    -0.6540    -1.5430 hc         1 7UY       0.026700
     62 H14         -8.9670    -0.5730    -0.2800 hc         1 7UY       0.015200
     63 H15         -8.1370    -2.0790    -0.9280 hc         1 7UY       0.015200
@<TRIPOS>BOND
     1     1     2 ar  
     2     1    24 ar  
     3     1    34 1   
     4     2     3 1   
     5     2    27 ar  
     6     3    22 1   
     7     3    35 1   
     8     3    36 1   
     9     4     5 1   
    10     4    28 1   
    11     4    37 1   
    12     4    38 1   
    13     5    29 1   
    14     5    39 1   
    15     5    40 1   
    16     6    29 1   
    17     6    30 1   
    18     6    41 1   
    19     6    42 1   
    20     7    14 1   
    21     7    22 1   
    22     7    23 1   
    23     7    43 1   
    24     8     9 ar  
    25     8    16 1   
    26     8    21 ar  
    27     9    17 ar  
    28     9    44 1   
    29    10    18 ar  
    30    10    21 ar  
    31    10    45 1   
    32    11    12 1   
    33    11    18 1   
    34    11    19 2   
    35    12    13 2   
    36    12    46 1   
    37    13    20 1   
    38    13    47 1   
    39    14    48 1   
    40    14    49 1   
    41    14    50 1   
    42    15    16 2   
    43    16    22 1   
    44    17    18 ar  
    45    17    51 1   
    46    19    20 1   
    47    19    52 1   
    48    21    53 1   
    49    23    54 1   
    50    23    55 1   
    51    23    56 1   
    52    24    25 ar  
    53    24    57 1   
    54    25    26 ar  
    55    25    58 1   
    56    26    27 ar  
    57    26    59 1   
    58    27    28 1   
    59    29    60 1   
    60    29    61 1   
    61    30    31 1   
    62    30    62 1   
    63    30    63 1   
    64    31    32 1   
    65    31    33 1   
@<TRIPOS>SUBSTRUCTURE
     1 7UY         1 TEMP              0 ****  ****    0 ROOT
