@<TRIPOS>MOLECULE
7UZ
   28    28     1     0     0
SMALL
No Charge or Current Charge


@<TRIPOS>ATOM
      1 C1           1.6150     1.2690     0.2370 c          1 7UZ       0.740000
      2 O2           1.6700     2.1510    -0.6080 o          1 7UZ      -0.775500
      3 O3           1.6820     1.5020     1.4340 o          1 7UZ      -0.775500
      4 C4           1.3750    -0.1570    -0.2440 c3         1 7UZ      -0.308700
      5 C5           2.6740    -0.9270    -0.0370 c          1 7UZ       0.740000
      6 O6           3.2960    -1.2690    -1.0320 o          1 7UZ      -0.775500
      7 O7           3.0190    -1.2450     1.0910 o          1 7UZ      -0.775500
      8 C8           0.1460    -0.8510     0.4160 c3         1 7UZ      -0.016400
      9 C10         -1.2380    -0.1500     0.2200 c6         1 7UZ      -0.061700
     10 C13         -1.6670    -0.0630    -1.2760 c6         1 7UZ      -0.070900
     11 C14         -3.0530     0.6120    -1.4370 c6         1 7UZ      -0.072900
     12 C15         -4.1340    -0.1110    -0.6000 c6         1 7UZ      -0.067400
     13 C16         -3.7210    -0.1910     0.8880 c6         1 7UZ      -0.072900
     14 C17         -2.3390    -0.8720     1.0500 c6         1 7UZ      -0.070900
     15 H4           1.2170    -0.1090    -1.3290 hc         1 7UZ       0.011700
     16 H8           0.0870    -1.8760     0.0290 hc         1 7UZ       0.021700
     17 H8A          0.3410    -0.9520     1.4900 hc         1 7UZ       0.021700
     18 H10         -1.1330     0.8720     0.6120 hc         1 7UZ       0.069700
     19 H13         -0.9300     0.5090    -1.8530 hc         1 7UZ       0.036950
     20 H13A        -1.6950    -1.0700    -1.7150 hc         1 7UZ       0.036950
     21 H14         -2.9890     1.6640    -1.1280 hc         1 7UZ       0.018450
     22 H14A        -3.3430     0.6150    -2.4960 hc         1 7UZ       0.018450
     23 H15         -5.0930     0.4160    -0.6940 hc         1 7UZ       0.007700
     24 H15A        -4.2930    -1.1240    -0.9960 hc         1 7UZ       0.007700
     25 H16         -3.6890     0.8190     1.3190 hc         1 7UZ       0.018450
     26 H16A        -4.4790    -0.7480     1.4550 hc         1 7UZ       0.018450
     27 H17         -2.4110    -1.9230     0.7390 hc         1 7UZ       0.036950
     28 H17A        -2.0620    -0.8810     2.1130 hc         1 7UZ       0.036950
@<TRIPOS>BOND
     1     1     2 1   
     2     1     3 1   
     3     1     4 1   
     4     4     5 1   
     5     4     8 1   
     6     4    15 1   
     7     5     6 1   
     8     5     7 1   
     9     8     9 1   
    10     8    16 1   
    11     8    17 1   
    12     9    10 1   
    13     9    14 1   
    14     9    18 1   
    15    10    11 1   
    16    10    19 1   
    17    10    20 1   
    18    11    12 1   
    19    11    21 1   
    20    11    22 1   
    21    12    13 1   
    22    12    23 1   
    23    12    24 1   
    24    13    14 1   
    25    13    25 1   
    26    13    26 1   
    27    14    27 1   
    28    14    28 1   
@<TRIPOS>SUBSTRUCTURE
     1 7UZ         1 TEMP              0 ****  ****    0 ROOT
