@<TRIPOS>MOLECULE
7UZ
   28    28     1     0     0
SMALL
abcg2


@<TRIPOS>ATOM
      1 C1           1.4490     1.2450     0.0150 c          1 7UZ       0.740000
      2 O2           1.4390     2.0570    -0.9340 o          1 7UZ      -0.775500
      3 O3           1.5740     1.5400     1.2250 o          1 7UZ      -0.775500
      4 C4           1.3020    -0.2530    -0.2970 c3         1 7UZ      -0.308700
      5 C5           2.6550    -0.9260     0.0200 c          1 7UZ       0.740000
      6 O6           3.6470    -0.4480    -0.5740 o          1 7UZ      -0.775500
      7 O7           2.6790    -1.8780     0.8260 o          1 7UZ      -0.775500
      8 C8           0.1220    -0.8660     0.4470 c3         1 7UZ      -0.016400
      9 C10         -1.2190    -0.1600     0.2430 c6         1 7UZ      -0.061700
     10 C13         -1.6350    -0.0690    -1.2250 c6         1 7UZ      -0.070900
     11 C14         -2.9910     0.6110    -1.3970 c6         1 7UZ      -0.072900
     12 C15         -4.0740    -0.0770    -0.5740 c6         1 7UZ      -0.067400
     13 C16         -3.6700    -0.1610     0.8940 c6         1 7UZ      -0.072900
     14 C17         -2.3170    -0.8470     1.0550 c6         1 7UZ      -0.070900
     15 H4           1.1440    -0.3660    -1.3760 hc         1 7UZ       0.011700
     16 H8           0.0090    -1.9160     0.1510 hc         1 7UZ       0.021700
     17 H8A          0.3440    -0.8800     1.5170 hc         1 7UZ       0.021700
     18 H10         -1.1240     0.8650     0.6260 hc         1 7UZ       0.069700
     19 H13         -0.8790     0.4760    -1.7950 hc         1 7UZ       0.036950
     20 H13A        -1.6800    -1.0810    -1.6470 hc         1 7UZ       0.036950
     21 H14         -2.9090     1.6570    -1.0810 hc         1 7UZ       0.018450
     22 H14A        -3.2710     0.6290    -2.4540 hc         1 7UZ       0.018450
     23 H15         -5.0250     0.4520    -0.6770 hc         1 7UZ       0.007700
     24 H15A        -4.2370    -1.0890    -0.9620 hc         1 7UZ       0.007700
     25 H16         -3.6110     0.8520     1.3090 hc         1 7UZ       0.018450
     26 H16A        -4.4350    -0.6880     1.4700 hc         1 7UZ       0.018450
     27 H17         -2.4020    -1.8920     0.7300 hc         1 7UZ       0.036950
     28 H17A        -2.0340    -0.8760     2.1120 hc         1 7UZ       0.036950
@<TRIPOS>BOND
     1     1     2 1   
     2     1     3 1   
     3     1     4 1   
     4     4     5 1   
     5     4     8 1   
     6     4    15 1   
     7     5     6 1   
     8     5     7 1   
     9     8     9 1   
    10     8    16 1   
    11     8    17 1   
    12     9    10 1   
    13     9    14 1   
    14     9    18 1   
    15    10    11 1   
    16    10    19 1   
    17    10    20 1   
    18    11    12 1   
    19    11    21 1   
    20    11    22 1   
    21    12    13 1   
    22    12    23 1   
    23    12    24 1   
    24    13    14 1   
    25    13    25 1   
    26    13    26 1   
    27    14    27 1   
    28    14    28 1   
@<TRIPOS>SUBSTRUCTURE
     1 7UZ         1 TEMP              0 ****  ****    0 ROOT
