@<TRIPOS>MOLECULE
7V1
   63    65     1     0     0
SMALL
abcg2


@<TRIPOS>ATOM
      1 C4          -1.1460    -5.4990    -0.3460 ca         1 7V1      -0.073000
      2 C5          -1.1920    -4.1490    -0.6580 ca         1 7V1      -0.147300
      3 C6          -0.3930    -3.5930    -1.8050 c3         1 7V1       0.152300
      4 C7          -2.7760    -1.0790     0.5090 c3         1 7V1       0.159600
      5 C8          -2.5670     0.3000    -0.0780 c3         1 7V1      -0.085400
      6 C10         -3.0530     2.7740     0.2160 c3         1 7V1      -0.054400
      7 C13          1.7210    -3.3360    -0.5540 c3         1 7V1       0.131700
      8 C15          1.5670    -0.4170    -1.2100 ca         1 7V1      -0.125600
      9 C17          1.3320     0.0060     0.0930 ca         1 7V1      -0.080000
     10 C20          3.2800     1.2680    -1.4200 ca         1 7V1      -0.095500
     11 C21          3.1290    -3.0760    -1.0770 c3         1 7V1      -0.106100
     12 C22          1.6330    -3.1160     0.9530 c3         1 7V1      -0.106100
     13 C24          3.7960     3.3540     1.7220 cc         1 7V1      -0.164000
     14 C26          5.3710     4.3080     0.4840 cd         1 7V1       0.118900
     15 N            0.6590    -2.6890    -1.3500 n          1 7V1      -0.404800
     16 C           -1.9960    -3.3020     0.1230 ca         1 7V1       0.177100
     17 O           -2.0020    -2.0060    -0.2350 os         1 7V1      -0.337100
     18 C1          -2.7190    -3.8190     1.1940 ca         1 7V1      -0.209000
     19 O1          -2.5410     5.5270    -0.0650 o          1 7V1      -0.741000
     20 C2          -2.6500    -5.1780     1.4850 ca         1 7V1      -0.068000
     21 O2          -4.4040     6.1320     0.9920 o          1 7V1      -0.741000
     22 C3          -1.8690    -6.0260     0.7200 ca         1 7V1      -0.165000
     23 O3          -0.0160    -1.0720    -2.7890 o          1 7V1      -0.588100
     24 O4           4.7880     3.3460    -0.2580 os         1 7V1      -0.239000
     25 C9          -3.3770     1.3540     0.6680 c3         1 7V1      -0.077400
     26 C11         -3.8760     3.8220     0.9470 c3         1 7V1      -0.204400
     27 C12         -3.5780     5.2870     0.5830 c          1 7V1       0.716000
     28 C14          0.6840    -1.4370    -1.8520 c          1 7V1       0.625700
     29 C16          2.5270     0.2450    -1.9680 ca         1 7V1      -0.080000
     30 C18          2.0630     1.0470     0.6380 ca         1 7V1      -0.095500
     31 C19          3.0590     1.6860    -0.1030 ca         1 7V1      -0.106500
     32 C23          3.8280     2.7640     0.4940 cd         1 7V1       0.189500
     33 C25          4.8030     4.3610     1.7120 cc         1 7V1      -0.184000
     34 H3          -0.5260    -6.1520    -0.9490 ha         1 7V1       0.104000
     35 H5           0.0550    -4.4190    -2.3640 h1         1 7V1       0.062700
     36 H4          -1.0360    -3.0550    -2.4980 h1         1 7V1       0.062700
     37 H6          -2.4680    -1.0880     1.5620 h1         1 7V1       0.028200
     38 H7          -3.8360    -1.3560     0.4750 h1         1 7V1       0.028200
     39 H9          -1.5040     0.5550    -0.0310 hc         1 7V1       0.058700
     40 H8          -2.8420     0.2960    -1.1360 hc         1 7V1       0.058700
     41 H13         -1.9880     2.9630     0.3730 hc         1 7V1       0.043200
     42 H12         -3.2190     2.8580    -0.8630 hc         1 7V1       0.043200
     43 H16          1.5390    -4.4000    -0.7150 h1         1 7V1       0.040700
     44 H18          0.5600    -0.4660     0.6860 ha         1 7V1       0.122500
     45 H20          4.0340     1.7450    -2.0300 ha         1 7V1       0.121500
     46 H23          3.5050    -2.0870    -0.8180 hc         1 7V1       0.041867
     47 H21          3.8070    -3.8050    -0.6320 hc         1 7V1       0.041867
     48 H22          3.1830    -3.1940    -2.1600 hc         1 7V1       0.041867
     49 H24          1.9960    -2.1350     1.2490 hc         1 7V1       0.041867
     50 H25          0.6130    -3.2340     1.3180 hc         1 7V1       0.041867
     51 H26          2.2530    -3.8600     1.4550 hc         1 7V1       0.041867
     52 H27          3.1370     3.1100     2.5390 ha         1 7V1       0.145000
     53 H29          6.1650     4.8660     0.0140 h4         1 7V1       0.046100
     54 H           -3.3410    -3.1820     1.8060 ha         1 7V1       0.122000
     55 H1          -3.2170    -5.5660     2.3220 ha         1 7V1       0.106000
     56 H2          -1.8170    -7.0820     0.9460 ha         1 7V1       0.108000
     57 H11         -4.4460     1.1590     0.5360 hc         1 7V1       0.023200
     58 H10         -3.1840     1.2680     1.7430 hc         1 7V1       0.023200
     59 H14         -4.9430     3.6330     0.7900 hc         1 7V1       0.013200
     60 H15         -3.7240     3.7100     2.0280 hc         1 7V1       0.013200
     61 H17          2.7090    -0.0540    -2.9930 ha         1 7V1       0.122500
     62 H19          1.8530     1.3590     1.6530 ha         1 7V1       0.121500
     63 H28          5.0670     5.0310     2.5130 ha         1 7V1       0.138000
@<TRIPOS>BOND
     1     1     2 ar  
     2     1    22 ar  
     3     1    34 1   
     4     2     3 1   
     5     2    16 ar  
     6     3    15 1   
     7     3    35 1   
     8     3    36 1   
     9     4     5 1   
    10     4    17 1   
    11     4    37 1   
    12     4    38 1   
    13     5    25 1   
    14     5    39 1   
    15     5    40 1   
    16     6    25 1   
    17     6    26 1   
    18     6    41 1   
    19     6    42 1   
    20     7    11 1   
    21     7    12 1   
    22     7    15 1   
    23     7    43 1   
    24     8     9 ar  
    25     8    28 1   
    26     8    29 ar  
    27     9    30 ar  
    28     9    44 1   
    29    10    29 ar  
    30    10    31 ar  
    31    10    45 1   
    32    11    46 1   
    33    11    47 1   
    34    11    48 1   
    35    12    49 1   
    36    12    50 1   
    37    12    51 1   
    38    13    32 2   
    39    13    33 1   
    40    13    52 1   
    41    14    24 1   
    42    14    33 2   
    43    14    53 1   
    44    15    28 1   
    45    16    17 1   
    46    16    18 ar  
    47    18    20 ar  
    48    18    54 1   
    49    19    27 1   
    50    20    22 ar  
    51    20    55 1   
    52    21    27 1   
    53    22    56 1   
    54    23    28 2   
    55    24    32 1   
    56    25    57 1   
    57    25    58 1   
    58    26    27 1   
    59    26    59 1   
    60    26    60 1   
    61    29    61 1   
    62    30    31 ar  
    63    30    62 1   
    64    31    32 1   
    65    33    63 1   
@<TRIPOS>SUBSTRUCTURE
     1 7V1         1 TEMP              0 ****  ****    0 ROOT
