@<TRIPOS>MOLECULE
7V1
   63    65     1     0     0
SMALL
No Charge or Current Charge


@<TRIPOS>ATOM
      1 C4          -1.2460    -5.5780    -0.2450 ca         1 7V1      -0.073000
      2 C5          -1.2850    -4.2090    -0.5750 ca         1 7V1      -0.147300
      3 C6          -0.4890    -3.6920    -1.7680 c3         1 7V1       0.152300
      4 C7          -2.6550    -0.9730     0.6980 c3         1 7V1       0.159600
      5 C8          -2.4280     0.3860     0.0080 c3         1 7V1      -0.085400
      6 C10         -2.7270     2.9420     0.1460 c3         1 7V1      -0.054400
      7 C13          1.8030    -3.5980    -0.7550 c3         1 7V1       0.131700
      8 C15          1.5390    -0.4940    -1.3810 ca         1 7V1      -0.125600
      9 C17          1.3440    -0.2890     0.0000 ca         1 7V1      -0.080000
     10 C20          2.8850     1.5460    -1.4530 ca         1 7V1      -0.095500
     11 C21          3.1960    -3.2500    -1.3330 c3         1 7V1      -0.106100
     12 C22          1.8160    -3.5550     0.7890 c3         1 7V1      -0.106100
     13 C24          3.2660     3.2630     1.9410 cc         1 7V1      -0.164000
     14 C26          4.4940     4.7180     0.7890 cd         1 7V1       0.118900
     15 N            0.6610    -2.8460    -1.3640 n          1 7V1      -0.404800
     16 C           -2.0390    -3.3170     0.2190 ca         1 7V1       0.177100
     17 O           -2.0540    -1.9800    -0.1290 os         1 7V1      -0.337100
     18 C1          -2.7480    -3.8060     1.3380 ca         1 7V1      -0.209000
     19 O1          -1.9550     6.0360     0.4150 o          1 7V1      -0.741000
     20 C2          -2.7050    -5.1730     1.6600 ca         1 7V1      -0.068000
     21 O2          -3.8570     5.8450    -0.5760 o          1 7V1      -0.741000
     22 C3          -1.9550    -6.0570     0.8690 ca         1 7V1      -0.165000
     23 O3           0.4960    -1.5360    -3.2510 o          1 7V1      -0.588100
     24 O4           4.0740     3.7740    -0.1220 os         1 7V1      -0.239000
     25 C9          -2.9660     1.5770     0.8300 c3         1 7V1      -0.077400
     26 C11         -3.2700     4.1370     0.9660 c3         1 7V1      -0.204400
     27 C12         -3.0130     5.4580     0.2180 c          1 7V1       0.716000
     28 C14          0.8930    -1.6580    -2.0970 c          1 7V1       0.625700
     29 C16          2.2980     0.4470    -2.1040 ca         1 7V1      -0.080000
     30 C18          1.9260     0.8110     0.6510 ca         1 7V1      -0.095500
     31 C19          2.7090     1.7400    -0.0660 ca         1 7V1      -0.106500
     32 C23          3.3190     2.8950     0.6230 cd         1 7V1       0.189500
     33 C25          4.0280     4.4430     2.0460 cc         1 7V1      -0.184000
     34 H3          -0.6610    -6.2710    -0.8470 ha         1 7V1       0.104000
     35 H5          -0.1260    -4.5320    -2.3740 h1         1 7V1       0.062700
     36 H4          -1.1760    -3.1160    -2.4020 h1         1 7V1       0.062700
     37 H6          -2.1900    -0.9630     1.6920 h1         1 7V1       0.028200
     38 H7          -3.7320    -1.1510     0.8110 h1         1 7V1       0.028200
     39 H9          -1.3550     0.5270    -0.1650 hc         1 7V1       0.058700
     40 H8          -2.9140     0.3730    -0.9750 hc         1 7V1       0.058700
     41 H13         -1.6510     3.0780    -0.0200 hc         1 7V1       0.043200
     42 H12         -3.2040     2.9370    -0.8420 hc         1 7V1       0.043200
     43 H16          1.6460    -4.6540    -1.0120 h1         1 7V1       0.040700
     44 H18          0.7100    -0.9640     0.5700 ha         1 7V1       0.122500
     45 H20          3.4740     2.2480    -2.0380 ha         1 7V1       0.121500
     46 H23          3.5240    -2.2490    -1.0290 hc         1 7V1       0.041867
     47 H21          3.9440    -3.9660    -0.9720 hc         1 7V1       0.041867
     48 H22          3.1870    -3.3010    -2.4280 hc         1 7V1       0.041867
     49 H24          2.1810    -2.5930     1.1630 hc         1 7V1       0.041867
     50 H25          0.8160    -3.7330     1.1990 hc         1 7V1       0.041867
     51 H26          2.4820    -4.3320     1.1810 hc         1 7V1       0.041867
     52 H27          2.7500     2.7630     2.7530 ha         1 7V1       0.145000
     53 H29          5.1150     5.5260     0.4250 h4         1 7V1       0.046100
     54 H           -3.3370    -3.1440     1.9660 ha         1 7V1       0.122000
     55 H1          -3.2530    -5.5480     2.5220 ha         1 7V1       0.106000
     56 H2          -1.9200    -7.1140     1.1200 ha         1 7V1       0.108000
     57 H11         -4.0420     1.4400     0.9980 hc         1 7V1       0.023200
     58 H10         -2.4850     1.5800     1.8160 hc         1 7V1       0.023200
     59 H14         -4.3480     3.9620     1.0740 hc         1 7V1       0.013200
     60 H15         -2.7240     4.1210     1.9180 hc         1 7V1       0.013200
     61 H17          2.4450     0.3210    -3.1750 ha         1 7V1       0.122500
     62 H19          1.7530     0.9400     1.7160 ha         1 7V1       0.121500
     63 H28          4.2030     5.0150     2.9520 ha         1 7V1       0.138000
@<TRIPOS>BOND
     1     1     2 ar  
     2     1    22 ar  
     3     1    34 1   
     4     2     3 1   
     5     2    16 ar  
     6     3    15 1   
     7     3    35 1   
     8     3    36 1   
     9     4     5 1   
    10     4    17 1   
    11     4    37 1   
    12     4    38 1   
    13     5    25 1   
    14     5    39 1   
    15     5    40 1   
    16     6    25 1   
    17     6    26 1   
    18     6    41 1   
    19     6    42 1   
    20     7    11 1   
    21     7    12 1   
    22     7    15 1   
    23     7    43 1   
    24     8     9 ar  
    25     8    28 1   
    26     8    29 ar  
    27     9    30 ar  
    28     9    44 1   
    29    10    29 ar  
    30    10    31 ar  
    31    10    45 1   
    32    11    46 1   
    33    11    47 1   
    34    11    48 1   
    35    12    49 1   
    36    12    50 1   
    37    12    51 1   
    38    13    32 2   
    39    13    33 1   
    40    13    52 1   
    41    14    24 1   
    42    14    33 2   
    43    14    53 1   
    44    15    28 1   
    45    16    17 1   
    46    16    18 ar  
    47    18    20 ar  
    48    18    54 1   
    49    19    27 1   
    50    20    22 ar  
    51    20    55 1   
    52    21    27 1   
    53    22    56 1   
    54    23    28 2   
    55    24    32 1   
    56    25    57 1   
    57    25    58 1   
    58    26    27 1   
    59    26    59 1   
    60    26    60 1   
    61    29    61 1   
    62    30    31 ar  
    63    30    62 1   
    64    31    32 1   
    65    33    63 1   
@<TRIPOS>SUBSTRUCTURE
     1 7V1         1 TEMP              0 ****  ****    0 ROOT
