@<TRIPOS>MOLECULE
7V3
   27    28     1     0     0
SMALL
No Charge or Current Charge


@<TRIPOS>ATOM
      1 C7          -1.1370     1.3470     0.5880 c3         1 7V3       0.257100
      2 C4B         -4.1250    -1.6120    -0.5730 ca         1 7V3      -0.109000
      3 C5B         -3.7090    -0.6490    -1.5060 ca         1 7V3      -0.113500
      4 C3B         -3.5800    -1.6130     0.7200 ca         1 7V3      -0.113500
      5 C6B         -2.7490     0.3140    -1.1470 ca         1 7V3      -0.098000
      6 C2B         -2.6200    -0.6510     1.0810 ca         1 7V3      -0.098000
      7 C1B         -2.1960     0.3250     0.1550 ca         1 7V3      -0.081300
      8 C4A          2.9070    -0.1730     0.0780 ca         1 7V3       0.123000
      9 C5A          2.0310    -0.1400    -1.0180 ca         1 7V3      -0.104000
     10 C1A          0.2820     0.8150     0.3990 ca         1 7V3      -0.127300
     11 C2A          1.1710     0.7780     1.4950 ca         1 7V3      -0.093000
     12 C3A          2.4790     0.2860     1.3340 ca         1 7V3      -0.104000
     13 N           -1.2760     2.6490    -0.0840 n8         1 7V3      -0.990200
     14 C6A          0.7230     0.3520    -0.8600 ca         1 7V3      -0.093000
     15 H1          -1.2900     1.5320     1.6620 h1         1 7V3       0.070700
     16 H2          -4.8670    -2.3570    -0.8530 ha         1 7V3       0.112000
     17 H3          -4.1290    -0.6480    -2.5100 ha         1 7V3       0.112000
     18 H4          -3.8990    -2.3610     1.4440 ha         1 7V3       0.112000
     19 H5          -2.4390     1.0480    -1.8860 ha         1 7V3       0.120000
     20 H6          -2.2010    -0.6670     2.0850 ha         1 7V3       0.120000
     21 H7           2.3650    -0.4970    -1.9890 ha         1 7V3       0.131000
     22 H8           0.8510     1.1300     2.4730 ha         1 7V3       0.120000
     23 H9           3.1590     0.2600     2.1810 ha         1 7V3       0.131000
     24 H10         -0.5260     3.2620     0.2540 hn         1 7V3       0.400000
     25 H11         -1.0470     2.5210    -1.0730 hn         1 7V3       0.400000
     26 H13          0.0550     0.3680    -1.7170 ha         1 7V3       0.120000
     27 Cl           4.5420    -0.7890    -0.1220 cl         1 7V3      -0.203000
@<TRIPOS>BOND
     1     1     7 1   
     2     1    10 1   
     3     1    13 1   
     4     1    15 1   
     5     2     3 ar  
     6     2     4 ar  
     7     2    16 1   
     8     3     5 ar  
     9     3    17 1   
    10     4     6 ar  
    11     4    18 1   
    12     5     7 ar  
    13     5    19 1   
    14     6     7 ar  
    15     6    20 1   
    16     8     9 ar  
    17     8    12 ar  
    18     8    27 1   
    19     9    14 ar  
    20     9    21 1   
    21    10    11 ar  
    22    10    14 ar  
    23    11    12 ar  
    24    11    22 1   
    25    12    23 1   
    26    13    24 1   
    27    13    25 1   
    28    14    26 1   
@<TRIPOS>SUBSTRUCTURE
     1 7V3         1 TEMP              0 ****  ****    0 ROOT
