@<TRIPOS>MOLECULE
7V3
   27    28     1     0     0
SMALL
abcg2


@<TRIPOS>ATOM
      1 C7          -1.1150     1.3950     0.4180 c3         1 7V3       0.257100
      2 C4B         -4.1090    -1.5520    -0.5830 ca         1 7V3      -0.109000
      3 C5B         -4.0910    -0.3350    -1.2460 ca         1 7V3      -0.113500
      4 C3B         -3.1590    -1.8070     0.4010 ca         1 7V3      -0.113500
      5 C6B         -3.1320     0.6240    -0.9320 ca         1 7V3      -0.098000
      6 C2B         -2.2000    -0.8540     0.7050 ca         1 7V3      -0.098000
      7 C1B         -2.1720     0.3730     0.0410 ca         1 7V3      -0.081300
      8 C4A          2.8550    -0.2520     0.3410 ca         1 7V3       0.123000
      9 C5A          2.0290    -0.4070    -0.7640 ca         1 7V3      -0.104000
     10 C1A          0.2730     0.7780     0.4070 ca         1 7V3      -0.127300
     11 C2A          1.1220     0.9180     1.4970 ca         1 7V3      -0.093000
     12 C3A          2.4140     0.4060     1.4760 ca         1 7V3      -0.104000
     13 N           -1.2130     2.5950    -0.3980 n8         1 7V3      -0.990200
     14 C6A          0.7450     0.1090    -0.7210 ca         1 7V3      -0.093000
     15 H1          -1.3230     1.7040     1.4480 h1         1 7V3       0.070700
     16 H2          -4.8560    -2.2970    -0.8270 ha         1 7V3       0.112000
     17 H3          -4.8270    -0.1240    -2.0110 ha         1 7V3       0.112000
     18 H4          -3.1650    -2.7510     0.9300 ha         1 7V3       0.112000
     19 H5          -3.1400     1.5740    -1.4480 ha         1 7V3       0.120000
     20 H6          -1.4610    -1.0680     1.4680 ha         1 7V3       0.120000
     21 H7           2.3810    -0.9270    -1.6450 ha         1 7V3       0.131000
     22 H8           0.7760     1.4320     2.3870 ha         1 7V3       0.120000
     23 H9           3.0620     0.5210     2.3340 ha         1 7V3       0.131000
     24 H10         -0.5760     3.2930    -0.0360 hn         1 7V3       0.400000
     25 H11         -0.9070     2.4050    -1.3450 hn         1 7V3       0.400000
     26 H13          0.1010    -0.0220    -1.5830 ha         1 7V3       0.120000
     27 CL           4.4640    -0.9000     0.2990 cl         1 7V3      -0.203000
@<TRIPOS>BOND
     1     1     7 1   
     2     1    10 1   
     3     1    13 1   
     4     1    15 1   
     5     2     3 ar  
     6     2     4 ar  
     7     2    16 1   
     8     3     5 ar  
     9     3    17 1   
    10     4     6 ar  
    11     4    18 1   
    12     5     7 ar  
    13     5    19 1   
    14     6     7 ar  
    15     6    20 1   
    16     8     9 ar  
    17     8    12 ar  
    18     8    27 1   
    19     9    14 ar  
    20     9    21 1   
    21    10    11 ar  
    22    10    14 ar  
    23    11    12 ar  
    24    11    22 1   
    25    12    23 1   
    26    13    24 1   
    27    13    25 1   
    28    14    26 1   
@<TRIPOS>SUBSTRUCTURE
     1 7V3         1 TEMP              0 ****  ****    0 ROOT
