@<TRIPOS>MOLECULE
7V4
   63    65     1     0     0
SMALL
bcc


@<TRIPOS>ATOM
      1 C4          -1.1800     5.4610     0.3540 ca         1 7V4      -0.091000
      2 C5          -1.2430     4.1140     0.6700 ca         1 7V4      -0.146300
      3 C6          -0.4400     3.5470     1.8100 c3         1 7V4       0.152300
      4 C7          -2.8750     1.0620    -0.4770 c3         1 7V4       0.136400
      5 C8          -2.6740    -0.3180     0.1120 c3         1 7V4      -0.085400
      6 C10         -3.1550    -2.7910    -0.1820 c3         1 7V4      -0.054400
      7 C13          1.6580     3.2680     0.5380 c3         1 7V4       0.131700
      8 C15          1.4840     0.3510     1.2000 ca         1 7V4      -0.134600
      9 C17          2.4520    -0.3130     1.9460 ca         1 7V4      -0.093500
     10 C20          1.9470    -1.1210    -0.6520 ca         1 7V4      -0.127000
     11 C21          3.0690     2.9960     1.0470 c3         1 7V4      -0.105600
     12 C22          1.5520     3.0490    -0.9680 c3         1 7V4      -0.105600
     13 C24          5.0020    -3.3450    -0.0850 cc         1 7V4      -0.259300
     14 C26          5.3130    -4.3690    -0.9090 cd         1 7V4       0.216600
     15 O3          -0.0730     1.0260     2.7970 o          1 7V4      -0.590100
     16 C14          0.6180     1.3810     1.8490 c          1 7V4       0.692700
     17 C18          3.1860    -1.3440     1.3850 ca         1 7V4      -0.127000
     18 C19          2.9440    -1.7690     0.0770 ca         1 7V4       0.018000
     19 C23          3.7120    -2.8700    -0.5010 cc         1 7V4      -0.185300
     20 C25          3.3570    -3.6670    -1.5450 cd         1 7V4       0.264600
     21 O4           4.3180    -4.5730    -1.7970 os         1 7V4      -0.322800
     22 C16          1.2270    -0.0740    -0.0990 ca         1 7V4      -0.093500
     23 N            0.5980     2.6330     1.3440 n          1 7V4      -0.471800
     24 C3          -1.9050     5.9960    -0.7060 ca         1 7V4      -0.183000
     25 C2          -2.7050     5.1580    -1.4620 ca         1 7V4      -0.087000
     26 C1          -2.7930     3.8010    -1.1650 ca         1 7V4      -0.227000
     27 C           -2.0670     3.2760    -0.1000 ca         1 7V4       0.177100
     28 O           -2.0890     1.9820     0.2620 os         1 7V4      -0.312900
     29 C9          -3.4850    -1.3720    -0.6320 c3         1 7V4      -0.077400
     30 C11         -3.9730    -3.8430    -0.9100 c3         1 7V4      -0.205400
     31 C12         -3.6610    -5.3070    -0.5510 c          1 7V4       0.926600
     32 O1          -4.4800    -6.1580    -0.9570 o          1 7V4      -0.846800
     33 O2          -2.6190    -5.5380     0.0950 o          1 7V4      -0.846800
     34 H3          -0.5450     6.1070     0.9500 ha         1 7V4       0.122000
     35 H4           0.0210     4.3680     2.3670 h1         1 7V4       0.062200
     36 H5          -1.0830     3.0140     2.5060 h1         1 7V4       0.062200
     37 H6          -2.5720     1.0660    -1.5310 h1         1 7V4       0.028200
     38 H7          -3.9330     1.3470    -0.4390 h1         1 7V4       0.028200
     39 H9          -1.6120    -0.5770     0.0680 hc         1 7V4       0.058700
     40 H8          -2.9500    -0.3110     1.1700 hc         1 7V4       0.058700
     41 H12         -2.0900    -2.9750    -0.3410 hc         1 7V4       0.043200
     42 H13         -3.3170    -2.8760     0.8970 hc         1 7V4       0.043200
     43 H16          1.4880     4.3350     0.7000 h1         1 7V4       0.039700
     44 H18          2.6500    -0.0130     2.9670 ha         1 7V4       0.138500
     45 H20          1.7340    -1.4210    -1.6710 ha         1 7V4       0.131000
     46 H22          3.4330     2.0040     0.7840 hc         1 7V4       0.041700
     47 H21          3.7490     3.7190     0.5950 hc         1 7V4       0.041700
     48 H23          3.1340     3.1140     2.1290 hc         1 7V4       0.041700
     49 H25          1.9000     2.0620    -1.2660 hc         1 7V4       0.041700
     50 H26          0.5310     3.1800    -1.3240 hc         1 7V4       0.041700
     51 H24          2.1780     3.7840    -1.4770 hc         1 7V4       0.041700
     52 H19          3.9410    -1.8370     1.9850 ha         1 7V4       0.131000
     53 H28          2.4750    -3.7120    -2.1640 h4         1 7V4       0.065100
     54 H17          0.4540     0.4060    -0.6840 ha         1 7V4       0.138500
     55 H2          -1.8390     7.0510    -0.9360 ha         1 7V4       0.126000
     56 H1          -3.2740     5.5520    -2.2950 ha         1 7V4       0.123000
     57 H           -3.4300     3.1710    -1.7700 ha         1 7V4       0.140000
     58 H10         -4.5540    -1.1790    -0.4970 hc         1 7V4       0.023200
     59 H11         -3.2950    -1.2860    -1.7080 hc         1 7V4       0.023200
     60 H15         -5.0420    -3.6640    -0.7490 hc         1 7V4       0.013700
     61 H14         -3.8280    -3.7290    -1.9920 hc         1 7V4       0.013700
     62 H27          5.6170    -2.9570     0.7100 ha         1 7V4       0.154000
     63 H29          6.1730    -5.0140    -0.9840 h4         1 7V4       0.046100
@<TRIPOS>BOND
     1     1     2 ar  
     2     1    24 ar  
     3     1    34 1   
     4     2     3 1   
     5     2    27 ar  
     6     3    23 1   
     7     3    35 1   
     8     3    36 1   
     9     4     5 1   
    10     4    28 1   
    11     4    37 1   
    12     4    38 1   
    13     5    29 1   
    14     5    39 1   
    15     5    40 1   
    16     6    29 1   
    17     6    30 1   
    18     6    41 1   
    19     6    42 1   
    20     7    11 1   
    21     7    12 1   
    22     7    23 1   
    23     7    43 1   
    24     8     9 ar  
    25     8    16 1   
    26     8    22 ar  
    27     9    17 ar  
    28     9    44 1   
    29    10    18 ar  
    30    10    22 ar  
    31    10    45 1   
    32    11    46 1   
    33    11    47 1   
    34    11    48 1   
    35    12    49 1   
    36    12    50 1   
    37    12    51 1   
    38    13    14 2   
    39    13    19 1   
    40    13    62 1   
    41    14    21 1   
    42    14    63 1   
    43    15    16 2   
    44    16    23 1   
    45    17    18 ar  
    46    17    52 1   
    47    18    19 1   
    48    19    20 2   
    49    20    21 1   
    50    20    53 1   
    51    22    54 1   
    52    24    25 ar  
    53    24    55 1   
    54    25    26 ar  
    55    25    56 1   
    56    26    27 ar  
    57    26    57 1   
    58    27    28 1   
    59    29    58 1   
    60    29    59 1   
    61    30    31 1   
    62    30    60 1   
    63    30    61 1   
    64    31    32 1   
    65    31    33 1   
@<TRIPOS>SUBSTRUCTURE
     1 7V4         1 TEMP              0 ****  ****    0 ROOT
