@<TRIPOS>MOLECULE
7V4
   63    65     1     0     0
SMALL
No Charge or Current Charge


@<TRIPOS>ATOM
      1 C4          -1.3250     5.5360     0.2660 ca         1 7V4      -0.073000
      2 C5          -1.3590     4.1680     0.5990 ca         1 7V4      -0.146300
      3 C6          -0.5420     3.6520     1.7770 c3         1 7V4       0.152300
      4 C7          -2.7460     0.9300    -0.6500 c3         1 7V4       0.159600
      5 C8          -2.5070    -0.4290     0.0370 c3         1 7V4      -0.085400
      6 C10         -2.7970    -2.9850    -0.0990 c3         1 7V4      -0.054400
      7 C13          1.7330     3.5560     0.7270 c3         1 7V4       0.131700
      8 C15          1.4730     0.4520     1.3510 ca         1 7V4      -0.134600
      9 C17          2.2420    -0.4930     2.0580 ca         1 7V4      -0.075500
     10 C20          1.8220    -0.8510    -0.6890 ca         1 7V4      -0.109000
     11 C21          3.1360     3.2040     1.2800 c3         1 7V4      -0.105600
     12 C22          1.7200     3.5160    -0.8180 c3         1 7V4      -0.105600
     13 C24          4.0310    -3.9800    -0.1450 cc         1 7V4      -0.176000
     14 C26          4.3230    -4.8030    -1.1970 cd         1 7V4       0.106900
     15 O3           0.4660     1.4910     3.2410 o          1 7V4      -0.590100
     16 C14          0.8430     1.6150     2.0800 c          1 7V4       0.625700
     17 C18          2.8130    -1.5920     1.3940 ca         1 7V4      -0.109000
     18 C19          2.6150    -1.7850     0.0120 ca         1 7V4       0.018000
     19 C23          3.2220    -2.9450    -0.6580 cc         1 7V4      -0.120000
     20 C25          3.0730    -3.2080    -1.9980 cd         1 7V4       0.154900
     21 O4           3.7450    -4.3550    -2.3630 os         1 7V4      -0.234000
     22 C16          1.2540     0.2500    -0.0270 ca         1 7V4      -0.075500
     23 N            0.6010     2.8040     1.3540 n          1 7V4      -0.404800
     24 C3          -2.0540     6.0140    -0.8350 ca         1 7V4      -0.165000
     25 C2          -2.8180     5.1300    -1.6120 ca         1 7V4      -0.069000
     26 C1          -2.8550     3.7640    -1.2880 ca         1 7V4      -0.209000
     27 C           -2.1270     3.2760    -0.1810 ca         1 7V4       0.177100
     28 O           -2.1360     1.9380     0.1680 os         1 7V4      -0.336100
     29 C9          -3.0490    -1.6210    -0.7800 c3         1 7V4      -0.077400
     30 C11         -3.3430    -4.1830    -0.9150 c3         1 7V4      -0.205400
     31 C12         -3.0720    -5.5020    -0.1690 c          1 7V4       0.716000
     32 O1          -3.9070    -5.8940     0.6320 o          1 7V4      -0.741500
     33 O2          -2.0140    -6.0760    -0.3780 o          1 7V4      -0.741500
     34 H3          -0.7300     6.2300     0.8570 ha         1 7V4       0.104000
     35 H4          -0.1670     4.4920     2.3760 h1         1 7V4       0.062200
     36 H5          -1.2180     3.0770     2.4240 h1         1 7V4       0.062200
     37 H6          -2.2930     0.9200    -1.6500 h1         1 7V4       0.028200
     38 H7          -3.8250     1.1060    -0.7500 h1         1 7V4       0.028200
     39 H9          -1.4320    -0.5650     0.2010 hc         1 7V4       0.058700
     40 H8          -2.9840    -0.4170     1.0250 hc         1 7V4       0.058700
     41 H12         -1.7180    -3.1160     0.0570 hc         1 7V4       0.043200
     42 H13         -3.2640    -2.9830     0.8940 hc         1 7V4       0.043200
     43 H16          1.5830     4.6120     0.9890 h1         1 7V4       0.039700
     44 H18          2.4080    -0.3710     3.1270 ha         1 7V4       0.120500
     45 H20          1.6250    -0.9700    -1.7500 ha         1 7V4       0.113000
     46 H22          3.4560     2.2030     0.9690 hc         1 7V4       0.041700
     47 H21          3.8780     3.9200     0.9070 hc         1 7V4       0.041700
     48 H23          3.1450     3.2530     2.3750 hc         1 7V4       0.041700
     49 H25          2.0760     2.5540    -1.2000 hc         1 7V4       0.041700
     50 H26          0.7130     3.6970    -1.2100 hc         1 7V4       0.041700
     51 H24          2.3810     4.2930    -1.2190 hc         1 7V4       0.041700
     52 H19          3.4100    -2.2960     1.9660 ha         1 7V4       0.113000
     53 H28          2.5390    -2.6840    -2.7790 h4         1 7V4       0.065100
     54 H17          0.6130     0.9280    -0.5840 ha         1 7V4       0.120500
     55 H2          -2.0230     7.0720    -1.0880 ha         1 7V4       0.108000
     56 H1          -3.3800     5.5040    -2.4650 ha         1 7V4       0.105000
     57 H           -3.4550     3.1010    -1.9050 ha         1 7V4       0.122000
     58 H10         -4.1270    -1.4890    -0.9380 hc         1 7V4       0.023200
     59 H11         -2.5770    -1.6210    -1.7710 hc         1 7V4       0.023200
     60 H15         -4.4230    -4.0120    -1.0120 hc         1 7V4       0.013700
     61 H14         -2.8060    -4.1640    -1.8710 hc         1 7V4       0.013700
     62 H27          4.3580    -4.0990     0.8820 ha         1 7V4       0.136000
     63 H29          4.9120    -5.7100    -1.2440 h4         1 7V4       0.046100
@<TRIPOS>BOND
     1     1     2 ar  
     2     1    24 ar  
     3     1    34 1   
     4     2     3 1   
     5     2    27 ar  
     6     3    23 1   
     7     3    35 1   
     8     3    36 1   
     9     4     5 1   
    10     4    28 1   
    11     4    37 1   
    12     4    38 1   
    13     5    29 1   
    14     5    39 1   
    15     5    40 1   
    16     6    29 1   
    17     6    30 1   
    18     6    41 1   
    19     6    42 1   
    20     7    11 1   
    21     7    12 1   
    22     7    23 1   
    23     7    43 1   
    24     8     9 ar  
    25     8    16 1   
    26     8    22 ar  
    27     9    17 ar  
    28     9    44 1   
    29    10    18 ar  
    30    10    22 ar  
    31    10    45 1   
    32    11    46 1   
    33    11    47 1   
    34    11    48 1   
    35    12    49 1   
    36    12    50 1   
    37    12    51 1   
    38    13    14 2   
    39    13    19 1   
    40    13    62 1   
    41    14    21 1   
    42    14    63 1   
    43    15    16 2   
    44    16    23 1   
    45    17    18 ar  
    46    17    52 1   
    47    18    19 1   
    48    19    20 2   
    49    20    21 1   
    50    20    53 1   
    51    22    54 1   
    52    24    25 ar  
    53    24    55 1   
    54    25    26 ar  
    55    25    56 1   
    56    26    27 ar  
    57    26    57 1   
    58    27    28 1   
    59    29    58 1   
    60    29    59 1   
    61    30    31 1   
    62    30    60 1   
    63    30    61 1   
    64    31    32 1   
    65    31    33 1   
@<TRIPOS>SUBSTRUCTURE
     1 7V4         1 TEMP              0 ****  ****    0 ROOT
