@<TRIPOS>MOLECULE
7V5
   48    51     1     0     0
SMALL
No Charge or Current Charge


@<TRIPOS>ATOM
      1 C4          32.5690    37.6360    31.3610 ca         1 7V5      -0.145000
      2 C6          30.5860    32.5070    29.9370 ca         1 7V5      -0.024000
      3 C7          30.2180    31.2150    29.4980 ca         1 7V5      -0.118000
      4 C8          31.1360    30.3990    28.7880 ca         1 7V5      -0.009000
      5 C3          33.4320    38.7350    31.4990 ca         1 7V5      -0.008000
      6 C4A         33.0040    36.4630    30.7170 ca         1 7V5       0.029000
      7 N5          32.1140    35.3840    30.6050 na         1 7V5      -0.128700
      8 C5A         32.5710    34.2140    29.9560 cp         1 7V5       0.110700
      9 C6A         31.8890    32.9620    29.6530 cp         1 7V5      -0.163000
     10 C9          32.4400    30.8640    28.5070 ca         1 7V5      -0.154000
     11 C9A         32.7740    32.1440    28.9560 ca         1 7V5       0.049800
     12 N10         33.9610    32.8770    28.8310 na         1 7V5      -0.223600
     13 C10A        33.8600    34.1420    29.4470 ca         1 7V5      -0.161200
     14 C11A        34.7730    35.1990    29.5450 ca         1 7V5       0.464000
     15 N11         36.0540    35.0650    29.0010 nu         1 7V5      -0.942200
     16 C1          37.0630    34.1290    29.5150 c3         1 7V5       0.225800
     17 C2          38.3300    34.1980    28.6480 c3         1 7V5      -0.126400
     18 C12         39.4170    33.2150    29.1220 c3         1 7V5       0.093600
     19 N4          40.6620    33.2060    28.2330 nx         1 7V5      -0.656000
     20 C5'A        41.4230    34.5430    28.2500 c3         1 7V5       0.071900
     21 C5'X        41.5910    32.0320    28.5790 c3         1 7V5       0.071900
     22 C1A         34.3330    36.3860    30.1950 ca         1 7V5      -0.138000
     23 C13         35.1910    37.5020    30.3510 ca         1 7V5      -0.074000
     24 C14         34.7400    38.6650    30.9970 ca         1 7V5      -0.093000
     25 H4          31.5580    37.7020    31.7590 ha         1 7V5       0.149000
     26 H6          29.8790    33.1300    30.4800 ha         1 7V5       0.132000
     27 H7          29.2180    30.8410    29.7050 ha         1 7V5       0.150000
     28 H8          30.8330    29.4070    28.4580 ha         1 7V5       0.146000
     29 H3          33.0890    39.6390    31.9990 ha         1 7V5       0.157000
     30 H5          31.1650    35.3850    30.9550 hn         1 7V5       0.388000
     31 H9          33.1530    30.2500    27.9630 ha         1 7V5       0.136000
     32 H11         36.4290    35.9550    28.6750 hn         1 7V5       0.514000
     33 H1'A        36.6750    33.1010    29.5050 h1         1 7V5       0.067200
     34 H1'B        37.3160    34.3790    30.5560 h1         1 7V5       0.067200
     35 H2'A        38.7250    35.2200    28.6710 hc         1 7V5       0.080200
     36 H2'B        38.0670    33.9700    27.6080 hc         1 7V5       0.080200
     37 H3'A        38.9950    32.2050    29.1350 hx         1 7V5       0.105200
     38 H3'B        39.7180    33.4660    30.1430 hx         1 7V5       0.105200
     39 H5'A        40.7700    35.3520    27.9140 hx         1 7V5       0.107200
     40 H5'C        41.7650    34.7560    29.2660 hx         1 7V5       0.107200
     41 H5'B        42.2900    34.4860    27.5870 hx         1 7V5       0.107200
     42 H5XA        42.4410    32.0150    27.8920 hx         1 7V5       0.107200
     43 H5XC        41.9590    32.1470    29.6010 hx         1 7V5       0.107200
     44 H5XB        41.0440    31.0890    28.4980 hx         1 7V5       0.107200
     45 H1          36.2140    37.4830    29.9840 ha         1 7V5       0.111000
     46 H2          35.4080    39.5170    31.1110 ha         1 7V5       0.151000
     47 H10         40.3360    33.0500    27.2470 hn         1 7V5       0.507000
     48 H12         34.7730    32.5610    28.3110 hn         1 7V5       0.358000
@<TRIPOS>BOND
     1     1     5 ar  
     2     1     6 ar  
     3     1    25 1   
     4     2     3 ar  
     5     2     9 ar  
     6     2    26 1   
     7     3     4 ar  
     8     3    27 1   
     9     4    10 ar  
    10     4    28 1   
    11     5    24 ar  
    12     5    29 1   
    13     6     7 1   
    14     6    22 ar  
    15     7     8 2   
    16     7    30 1   
    17     8     9 1   
    18     8    13 ar  
    19     9    11 ar  
    20    10    11 ar  
    21    10    31 1   
    22    11    12 1   
    23    12    13 1   
    24    12    48 1   
    25    13    14 ar  
    26    14    15 1   
    27    14    22 ar  
    28    15    16 1   
    29    15    32 1   
    30    16    17 1   
    31    16    33 1   
    32    16    34 1   
    33    17    18 1   
    34    17    35 1   
    35    17    36 1   
    36    18    19 1   
    37    18    37 1   
    38    18    38 1   
    39    19    20 1   
    40    19    21 1   
    41    19    47 1   
    42    20    39 1   
    43    20    40 1   
    44    20    41 1   
    45    21    42 1   
    46    21    43 1   
    47    21    44 1   
    48    22    23 ar  
    49    23    24 ar  
    50    23    45 1   
    51    24    46 1   
@<TRIPOS>SUBSTRUCTURE
     1 7V5         1 TEMP              0 ****  ****    0 ROOT
