@<TRIPOS>MOLECULE
7V5
   48    51     1     0     0
SMALL
abcg2


@<TRIPOS>ATOM
      1 C4          32.4460    37.7450    30.9710 ca         1 7V5      -0.145000
      2 C6          30.7320    32.5460    30.1510 ca         1 7V5      -0.024000
      3 C7          30.4380    31.2320    29.8730 ca         1 7V5      -0.118000
      4 C8          31.4130    30.3770    29.3240 ca         1 7V5      -0.009000
      5 C3          33.2260    38.8680    31.0330 ca         1 7V5      -0.008000
      6 C4A         32.9870    36.5390    30.4970 ca         1 7V5       0.029000
      7 N5          32.2000    35.4320    30.4600 na         1 7V5      -0.128700
      8 C5A         32.6750    34.2630    30.0170 cp         1 7V5       0.110700
      9 C6A         32.0240    33.0080    29.8750 cp         1 7V5      -0.163000
     10 C9          32.6910    30.8090    29.0440 ca         1 7V5      -0.154000
     11 C9A         32.9920    32.1420    29.3290 ca         1 7V5       0.049800
     12 N10         34.1580    32.8200    29.1580 na         1 7V5      -0.223600
     13 C10A        33.9970    34.1270    29.5730 ca         1 7V5      -0.161200
     14 C11A        34.8810    35.2170    29.5810 ca         1 7V5       0.464000
     15 N11         36.1470    35.1620    29.1780 nu         1 7V5      -0.942200
     16 C1          36.9250    33.9820    28.8480 c3         1 7V5       0.225800
     17 C2          38.4010    34.3480    28.7910 c3         1 7V5      -0.126400
     18 C12         39.2220    33.0890    28.5760 c3         1 7V5       0.093600
     19 N4          40.6530    33.3740    28.2560 nx         1 7V5      -0.656000
     20 C5'A        41.3370    34.1710    29.3070 c3         1 7V5       0.071900
     21 C5'X        41.3900    32.1100    27.9930 c3         1 7V5       0.071900
     22 C1A         34.3320    36.4660    30.0710 ca         1 7V5      -0.138000
     23 C13         35.1040    37.6450    30.1660 ca         1 7V5      -0.074000
     24 C14         34.5690    38.8170    30.6310 ca         1 7V5      -0.093000
     25 H4          31.4110    37.7700    31.2860 ha         1 7V5       0.149000
     26 H6          29.9850    33.2070    30.5720 ha         1 7V5       0.132000
     27 H7          29.4490    30.8450    30.0760 ha         1 7V5       0.150000
     28 H8          31.1500    29.3480    29.1140 ha         1 7V5       0.146000
     29 H3          32.8050    39.7940    31.3980 ha         1 7V5       0.157000
     30 H5          31.2400    35.4980    30.7720 hn         1 7V5       0.388000
     31 H9          33.4330    30.1430    28.6220 ha         1 7V5       0.136000
     32 H11         36.6500    36.0320    29.1140 hn         1 7V5       0.514000
     33 H1'A        36.6170    33.5710    27.8830 h1         1 7V5       0.067200
     34 H1'B        36.7770    33.2220    29.6180 h1         1 7V5       0.067200
     35 H2'A        38.6820    34.8340    29.7260 hc         1 7V5       0.080200
     36 H2'B        38.5720    35.0570    27.9760 hc         1 7V5       0.080200
     37 H3'A        38.8310    32.5100    27.7390 hx         1 7V5       0.105200
     38 H3'B        39.2180    32.4580    29.4650 hx         1 7V5       0.105200
     39 H5'A        40.8800    35.1530    29.3800 hx         1 7V5       0.107200
     40 H5'C        41.2540    33.6440    30.2540 hx         1 7V5       0.107200
     41 H5'B        42.3810    34.2830    29.0320 hx         1 7V5       0.107200
     42 H5XA        42.4080    32.3510    27.7050 hx         1 7V5       0.107200
     43 H5XC        41.3890    31.5130    28.9010 hx         1 7V5       0.107200
     44 H5XB        40.8970    31.5710    27.1890 hx         1 7V5       0.107200
     45 H1          36.1480    37.6540    29.8850 ha         1 7V5       0.111000
     46 H2          35.1880    39.7010    30.6920 ha         1 7V5       0.151000
     47 H10         40.6730    33.9210    27.3920 hn         1 7V5       0.507000
     48 H12         34.9720    32.4230    28.7210 hn         1 7V5       0.358000
@<TRIPOS>BOND
     1     1     5 ar  
     2     1     6 ar  
     3     1    25 1   
     4     2     3 ar  
     5     2     9 ar  
     6     2    26 1   
     7     3     4 ar  
     8     3    27 1   
     9     4    10 ar  
    10     4    28 1   
    11     5    24 ar  
    12     5    29 1   
    13     6     7 1   
    14     6    22 ar  
    15     7     8 2   
    16     7    30 1   
    17     8     9 1   
    18     8    13 ar  
    19     9    11 ar  
    20    10    11 ar  
    21    10    31 1   
    22    11    12 1   
    23    12    13 1   
    24    12    48 1   
    25    13    14 ar  
    26    14    15 1   
    27    14    22 ar  
    28    15    16 1   
    29    15    32 1   
    30    16    17 1   
    31    16    33 1   
    32    16    34 1   
    33    17    18 1   
    34    17    35 1   
    35    17    36 1   
    36    18    19 1   
    37    18    37 1   
    38    18    38 1   
    39    19    20 1   
    40    19    21 1   
    41    19    47 1   
    42    20    39 1   
    43    20    40 1   
    44    20    41 1   
    45    21    42 1   
    46    21    43 1   
    47    21    44 1   
    48    22    23 ar  
    49    23    24 ar  
    50    23    45 1   
    51    24    46 1   
@<TRIPOS>SUBSTRUCTURE
     1 7V5         1 TEMP              0 ****  ****    0 ROOT
