@<TRIPOS>MOLECULE
7V7
   53    55     1     0     0
SMALL
No Charge or Current Charge


@<TRIPOS>ATOM
      1 C10          0.8800     0.1940     0.8950 c6         1 7V7       0.170800
      2 C13          3.9240    -0.3520     0.5900 c3         1 7V7      -0.033100
      3 C15          5.8870     1.2540     0.7710 ca         1 7V7      -0.107500
      4 C17          8.0650     0.7150    -0.1740 ca         1 7V7      -0.112000
      5 C20         -3.7880     0.6330    -0.3020 ca         1 7V7      -0.053000
      6 C21         -3.7810     1.6810     0.6430 ca         1 7V7      -0.113000
      7 C22         -4.8120     2.6360     0.6620 ca         1 7V7      -0.105000
      8 C24         -5.9400     1.4510    -1.1330 ca         1 7V7      -0.105000
      9 C03         -4.5820    -2.1720     0.3790 c3         1 7V7      -0.155400
     10 C04         -4.6740    -3.4450     1.2510 c3         1 7V7      -0.076100
     11 C06         -1.3780     0.0130    -0.2510 c6         1 7V7       0.130700
     12 C07         -0.6530    -0.3440    -1.5680 c6         1 7V7      -0.088900
     13 C08          0.7750     0.2460    -1.5680 c6         1 7V7       0.170800
     14 C11         -0.5460    -0.3950     0.9870 c6         1 7V7      -0.088900
     15 C14          5.3780     0.0190     0.3250 ca         1 7V7      -0.080300
     16 C16          7.2260     1.6010     0.5230 ca         1 7V7      -0.110000
     17 C18          7.5630    -0.5180    -0.6240 ca         1 7V7      -0.110000
     18 C19          6.2230    -0.8650    -0.3760 ca         1 7V7      -0.107500
     19 C23         -5.8880     2.5270    -0.2330 ca         1 7V7      -0.108000
     20 C25         -4.9080     0.4970    -1.1500 ca         1 7V7      -0.113000
     21 N05         -2.8070    -0.4210    -0.2060 n          1 7V7      -0.253400
     22 N09          1.5590    -0.1940    -0.3780 n3         1 7V7      -0.718600
     23 O01         -2.3310    -2.6890    -0.2770 o          1 7V7      -0.593100
     24 H102         0.8230     1.2900     0.9740 h1         1 7V7       0.029450
     25 H101         1.4460    -0.1640     1.7660 h1         1 7V7       0.029450
     26 H131         3.6400    -0.0140     1.5920 hc         1 7V7       0.055200
     27 H132         3.8040    -1.4420     0.5840 hc         1 7V7       0.055200
     28 H171         9.1020     0.9840    -0.3660 ha         1 7V7       0.111000
     29 H211        -2.9760     1.7580     1.3700 ha         1 7V7       0.123000
     30 H221        -4.7840     3.4510     1.3820 ha         1 7V7       0.117000
     31 H241        -6.7840     1.3520    -1.8130 ha         1 7V7       0.117000
     32 H031        -5.0460    -1.3240     0.8930 hc         1 7V7       0.059700
     33 H032        -5.1850    -2.3050    -0.5250 hc         1 7V7       0.059700
     34 H043        -5.7130    -3.6330     1.5440 hc         1 7V7       0.040700
     35 H041        -4.3110    -4.3230     0.7030 hc         1 7V7       0.040700
     36 H042        -4.0750    -3.3330     2.1630 hc         1 7V7       0.040700
     37 H061        -1.3890     1.1130    -0.2360 h1         1 7V7       0.044700
     38 H072        -0.5900    -1.4320    -1.6970 hc         1 7V7       0.062200
     39 H071        -1.2160     0.0470    -2.4260 hc         1 7V7       0.062200
     40 H082         1.2800    -0.0660    -2.4930 h1         1 7V7       0.029450
     41 H081         0.7090     1.3440    -1.5920 h1         1 7V7       0.029450
     42 H112        -0.4740    -1.4870     1.0670 hc         1 7V7       0.062200
     43 H111        -1.0340    -0.0410     1.9040 hc         1 7V7       0.062200
     44 H161         7.6140     2.5560     0.8710 ha         1 7V7       0.111000
     45 H181         8.2110    -1.2040    -1.1650 ha         1 7V7       0.111000
     46 H191         5.8420    -1.8200    -0.7300 ha         1 7V7       0.111000
     47 H231        -6.6890     3.2640    -0.2160 ha         1 7V7       0.116000
     48 H251        -4.9670    -0.3330    -1.8500 ha         1 7V7       0.123000
     49 C12          2.9710     0.2620    -0.4610 c3         1 7V7       0.172800
     50 C02         -3.1490    -1.7990    -0.0690 c          1 7V7       0.609100
     51 H151         5.2440     1.9460     1.3100 ha         1 7V7       0.111000
     52 H122         3.0180     1.3570    -0.3790 h1         1 7V7       0.032700
     53 H121         3.3720     0.0010    -1.4500 h1         1 7V7       0.032700
@<TRIPOS>BOND
     1     1    14 1   
     2     1    22 1   
     3     1    24 1   
     4     1    25 1   
     5     2    15 1   
     6     2    26 1   
     7     2    27 1   
     8     2    49 1   
     9     3    15 ar  
    10     3    16 ar  
    11     3    51 1   
    12     4    16 ar  
    13     4    17 ar  
    14     4    28 1   
    15     5     6 ar  
    16     5    20 ar  
    17     5    21 1   
    18     6     7 ar  
    19     6    29 1   
    20     7    19 ar  
    21     7    30 1   
    22     8    19 ar  
    23     8    20 ar  
    24     8    31 1   
    25     9    10 1   
    26     9    32 1   
    27     9    33 1   
    28     9    50 1   
    29    10    34 1   
    30    10    35 1   
    31    10    36 1   
    32    11    12 1   
    33    11    14 1   
    34    11    21 1   
    35    11    37 1   
    36    12    13 1   
    37    12    38 1   
    38    12    39 1   
    39    13    22 1   
    40    13    40 1   
    41    13    41 1   
    42    14    42 1   
    43    14    43 1   
    44    15    18 ar  
    45    16    44 1   
    46    17    18 ar  
    47    17    45 1   
    48    18    46 1   
    49    19    47 1   
    50    20    48 1   
    51    21    50 1   
    52    22    49 1   
    53    23    50 2   
    54    49    52 1   
    55    49    53 1   
@<TRIPOS>SUBSTRUCTURE
     1 7V7         1 TEMP              0 ****  ****    0 ROOT
