@<TRIPOS>MOLECULE
7V7
   53    55     1     0     0
SMALL
bcc


@<TRIPOS>ATOM
      1 C10          0.9140     0.4260     0.8280 c6         1 7V7       0.170800
      2 C13          3.8560    -0.4400     0.5100 c3         1 7V7      -0.033100
      3 C15          5.7490     1.1990     0.7470 ca         1 7V7      -0.125500
      4 C17          7.8820     0.8440    -0.3090 ca         1 7V7      -0.130000
      5 C20         -3.7470     0.5460    -0.0720 ca         1 7V7       0.039600
      6 C21         -4.1150     1.3510     1.0000 ca         1 7V7      -0.131000
      7 C22         -5.0670     2.3460     0.8250 ca         1 7V7      -0.123000
      8 C24         -5.2810     1.7390    -1.4910 ca         1 7V7      -0.123000
      9 C03         -4.5220    -2.0450     0.6070 c3         1 7V7      -0.155400
     10 C04         -4.7770    -3.5010     0.9550 c3         1 7V7      -0.076100
     11 C06         -1.3550     0.0060    -0.1110 c6         1 7V7       0.130700
     12 C07         -0.6810    -0.6110    -1.3330 c6         1 7V7      -0.088900
     13 C08          0.7140    -0.0280    -1.5050 c6         1 7V7       0.170800
     14 C11         -0.4690    -0.1370     1.1220 c6         1 7V7      -0.088900
     15 C14          5.2710    -0.0110     0.2460 ca         1 7V7      -0.080300
     16 C16          7.0420     1.6250     0.4750 ca         1 7V7      -0.128000
     17 C18          7.4180    -0.3640    -0.8150 ca         1 7V7      -0.128000
     18 C19          6.1230    -0.7850    -0.5390 ca         1 7V7      -0.125500
     19 C23         -5.6520     2.5410    -0.4200 ca         1 7V7      -0.126000
     20 C25         -4.3270     0.7450    -1.3190 ca         1 7V7      -0.131000
     21 N05         -2.7390    -0.4460     0.0940 n          1 7V7      -0.413000
     22 N09          1.5200    -0.2360    -0.3150 n3         1 7V7      -0.718600
     23 O01         -2.1990    -2.6030     0.4920 o          1 7V7      -0.593100
     24 H102         0.8430     1.5170     0.6610 h1         1 7V7       0.029450
     25 H101         1.5450     0.2890     1.7070 h1         1 7V7       0.029450
     26 H131         3.5710    -0.1410     1.5210 hc         1 7V7       0.055200
     27 H132         3.7720    -1.5280     0.4650 hc         1 7V7       0.055200
     28 H171         8.8920     1.1700    -0.5190 ha         1 7V7       0.129000
     29 H211        -3.6590     1.1930     1.9700 ha         1 7V7       0.141000
     30 H221        -5.3520     2.9690     1.6620 ha         1 7V7       0.135000
     31 H241        -5.7330     1.8870    -2.4630 ha         1 7V7       0.135000
     32 H031        -4.9110    -1.3970     1.3980 hc         1 7V7       0.059700
     33 H032        -5.0830    -1.7700    -0.2890 hc         1 7V7       0.059700
     34 H043        -5.8430    -3.6610     1.1070 hc         1 7V7       0.040700
     35 H041        -4.4510    -4.1700     0.1580 hc         1 7V7       0.040700
     36 H042        -4.2620    -3.7950     1.8690 hc         1 7V7       0.040700
     37 H061        -1.4430     1.0790    -0.3090 h1         1 7V7       0.044700
     38 H072        -0.6100    -1.6930    -1.2220 hc         1 7V7       0.062200
     39 H071        -1.2720    -0.4050    -2.2280 hc         1 7V7       0.062200
     40 H082         1.2040    -0.5120    -2.3530 h1         1 7V7       0.029450
     41 H081         0.6350     1.0450    -1.7600 h1         1 7V7       0.029450
     42 H112        -0.3780    -1.1830     1.4140 hc         1 7V7       0.062200
     43 H111        -0.9090     0.4060     1.9630 hc         1 7V7       0.062200
     44 H161         7.3940     2.5660     0.8780 ha         1 7V7       0.129000
     45 H181         8.0660    -0.9810    -1.4250 ha         1 7V7       0.129000
     46 H191         5.7740    -1.7310    -0.9360 ha         1 7V7       0.129000
     47 H231        -6.3940     3.3160    -0.5530 ha         1 7V7       0.134000
     48 H251        -4.0360     0.1150    -2.1510 ha         1 7V7       0.141000
     49 C12          2.8980     0.1660    -0.5190 c3         1 7V7       0.172800
     50 C02         -3.0520    -1.7340     0.3920 c          1 7V7       0.676100
     51 H151         5.1010     1.8120     1.3640 ha         1 7V7       0.129000
     52 H122         3.0110     1.2640    -0.5250 h1         1 7V7       0.032700
     53 H121         3.2100    -0.1800    -1.5080 h1         1 7V7       0.032700
@<TRIPOS>BOND
     1     1    14 1   
     2     1    22 1   
     3     1    24 1   
     4     1    25 1   
     5     2    15 1   
     6     2    26 1   
     7     2    27 1   
     8     2    49 1   
     9     3    15 ar  
    10     3    16 ar  
    11     3    51 1   
    12     4    16 ar  
    13     4    17 ar  
    14     4    28 1   
    15     5     6 ar  
    16     5    20 ar  
    17     5    21 1   
    18     6     7 ar  
    19     6    29 1   
    20     7    19 ar  
    21     7    30 1   
    22     8    19 ar  
    23     8    20 ar  
    24     8    31 1   
    25     9    10 1   
    26     9    32 1   
    27     9    33 1   
    28     9    50 1   
    29    10    34 1   
    30    10    35 1   
    31    10    36 1   
    32    11    12 1   
    33    11    14 1   
    34    11    21 1   
    35    11    37 1   
    36    12    13 1   
    37    12    38 1   
    38    12    39 1   
    39    13    22 1   
    40    13    40 1   
    41    13    41 1   
    42    14    42 1   
    43    14    43 1   
    44    15    18 ar  
    45    16    44 1   
    46    17    18 ar  
    47    17    45 1   
    48    18    46 1   
    49    19    47 1   
    50    20    48 1   
    51    21    50 1   
    52    22    49 1   
    53    23    50 2   
    54    49    52 1   
    55    49    53 1   
@<TRIPOS>SUBSTRUCTURE
     1 7V7         1 TEMP              0 ****  ****    0 ROOT
