@<TRIPOS>MOLECULE
7V8
   76    80     1     0     0
SMALL
No Charge or Current Charge


@<TRIPOS>ATOM
      1 C6          -7.6820    -5.2140    -1.3870 ca         1 7V8       0.176100
      2 N13         -7.0770    -1.8240     2.0750 ns         1 7V8      -0.305400
      3 C2          -7.9080    -2.8410    -1.8590 ca         1 7V8       0.320500
      4 C5          -7.4020    -4.8840    -0.0590 ca         1 7V8      -0.156000
      5 C18         -8.0480     3.0810    -2.4060 ca         1 7V8       0.328000
      6 C29         -6.3540     2.4160     3.7790 ca         1 7V8      -0.104000
      7 C31         -6.0540     2.8710     6.1470 ca         1 7V8      -0.135000
      8 C28         -6.8080    -1.6560     4.5460 ca         1 7V8      -0.290000
      9 C23         -7.6230     4.0970    -1.5300 ca         1 7V8      -0.104000
     10 C26         -6.4300     0.5840     5.3750 ca         1 7V8      -0.128000
     11 C1          -7.9390    -4.1780    -2.3010 ca         1 7V8      -0.156000
     12 C16         -9.0230     2.4270    -4.5340 ca         1 7V8       0.217600
     13 C7          -8.1870    -1.7040    -2.8530 c          1 7V8       0.523600
     14 C15         -8.8880     1.0910    -4.1260 ca         1 7V8      -0.290000
     15 C21         -8.2750     5.8070    -3.1260 ca         1 7V8      -0.135000
     16 N9          -8.1280    -0.4360    -2.3100 ns         1 7V8      -0.305400
     17 C4          -7.3820    -3.5350     0.3390 ca         1 7V8       0.320500
     18 C10         -8.3290     0.8280    -2.8700 ca         1 7V8       0.529900
     19 C17         -8.5950     3.4450    -3.6600 ca         1 7V8      -0.128000
     20 C22         -7.7330     5.4520    -1.8830 ca         1 7V8      -0.084000
     21 C27         -6.5850    -0.7920     5.6300 ca         1 7V8       0.217600
     22 C32         -6.2040     1.5030     6.4250 ca         1 7V8      -0.057000
     23 N36        -11.0560     1.6220    -9.0180 n8         1 7V8      -1.004200
     24 C34        -10.0180     1.7820    -6.7070 c3         1 7V8       0.161100
     25 N19         -7.9240     1.7910    -2.0280 nb         1 7V8      -0.749500
     26 C20         -8.7060     4.8090    -4.0150 ca         1 7V8      -0.057000
     27 O8          -8.4350    -1.9070    -4.0380 o          1 7V8      -0.581100
     28 N3          -7.6330    -2.5340    -0.5560 nb         1 7V8      -0.701000
     29 O49         -7.6930    -6.5490    -1.7390 os         1 7V8      -0.346100
     30 C50         -7.9710    -6.9880    -3.0830 c3         1 7V8       0.160600
     31 C51         -7.8930    -8.5360    -3.1030 c3         1 7V8       0.146800
     32 N52         -8.1640    -9.1210    -4.4440 n8         1 7V8      -1.004200
     33 O12         -6.8340    -4.0260     2.6540 o          1 7V8      -0.581100
     34 C14         -6.8610    -1.1120     3.2580 ca         1 7V8       0.529900
     35 N24         -6.7200     0.1980     3.0040 nb         1 7V8      -0.749500
     36 C25         -6.5060     1.0410     4.0370 ca         1 7V8       0.328000
     37 C30         -6.1290     3.3290     4.8230 ca         1 7V8      -0.084000
     38 C38         -6.6640    -2.6450     7.2700 c3         1 7V8       0.161100
     39 C39         -6.5250    -2.7790     8.8070 c3         1 7V8       0.146800
     40 N40         -6.6580    -4.1790     9.2920 n8         1 7V8      -1.004200
     41 H56         -7.2580    -1.2330     1.2760 hn         1 7V8       0.192000
     42 H54         -7.2010    -5.6720     0.6610 ha         1 7V8       0.161500
     43 H63         -6.4110     2.7760     2.7560 ha         1 7V8       0.132000
     44 H65         -5.8800     3.5750     6.9580 ha         1 7V8       0.115000
     45 H62         -6.9460    -2.7170     4.6940 ha         1 7V8       0.161000
     46 H61         -7.2020     3.8260    -0.5660 ha         1 7V8       0.132000
     47 H53         -8.1610    -4.3850    -3.3430 ha         1 7V8       0.161500
     48 H57         -9.2140     0.2760    -4.7570 ha         1 7V8       0.161000
     49 H59         -8.3620     6.8560    -3.4030 ha         1 7V8       0.115000
     50 H55         -7.8820    -0.4090    -1.3310 hn         1 7V8       0.192000
     51 H60         -7.3980     6.2240    -1.1930 ha         1 7V8       0.114500
     52 H66         -6.1430     1.1650     7.4570 ha         1 7V8       0.124500
     53 H34        -11.3660     2.1840    -9.8210 hn         1 7V8       0.401000
     54 H35        -10.2700     1.0800    -9.3990 hn         1 7V8       0.401000
     55 H69         -9.7510     3.1550    -8.3730 h1         1 7V8       0.044200
     56 H70        -11.3740     3.1940    -7.6450 h1         1 7V8       0.044200
     57 H67        -10.8230     1.1720    -6.2770 h1         1 7V8       0.054950
     58 H68         -9.1940     1.1210    -7.0030 h1         1 7V8       0.054950
     59 H58         -9.1250     5.1030    -4.9750 ha         1 7V8       0.124500
     60 H92         -7.2340    -6.5780    -3.7860 h1         1 7V8       0.053200
     61 H91         -8.9740    -6.6680    -3.3950 h1         1 7V8       0.053200
     62 H94         -8.6190    -8.9440    -2.3850 h1         1 7V8       0.047700
     63 H93         -6.8880    -8.8450    -2.7840 h1         1 7V8       0.047700
     64 H97         -8.1230   -10.1470    -4.3770 hn         1 7V8       0.402500
     65 H95         -9.1440    -8.9420    -4.7010 hn         1 7V8       0.402500
     66 H64         -6.0130     4.3890     4.6050 ha         1 7V8       0.114500
     67 H71         -7.6480    -3.0190     6.9580 h1         1 7V8       0.054950
     68 H72         -5.8860    -3.2460     6.7800 h1         1 7V8       0.054950
     69 H73         -5.5390    -2.3990     9.1090 h1         1 7V8       0.044200
     70 H74         -7.2930    -2.1620     9.2950 h1         1 7V8       0.044200
     71 H31         -6.5840    -4.1880    10.3180 hn         1 7V8       0.401000
     72 H32         -7.6190    -4.5060     9.1220 hn         1 7V8       0.401000
     73 C11         -7.0730    -3.1770     1.8000 c          1 7V8       0.523600
     74 O33         -9.5640     2.7680    -5.7600 os         1 7V8      -0.353100
     75 O37         -6.5190    -1.2530     6.9320 os         1 7V8      -0.353100
     76 C35        -10.5530     2.5320    -7.9540 c3         1 7V8       0.146800
@<TRIPOS>BOND
     1     1     4 ar  
     2     1    11 ar  
     3     1    29 1   
     4     2    34 1   
     5     2    41 1   
     6     2    73 1   
     7     3    11 ar  
     8     3    13 1   
     9     3    28 ar  
    10     4    17 ar  
    11     4    42 1   
    12     5     9 ar  
    13     5    19 ar  
    14     5    25 ar  
    15     6    36 ar  
    16     6    37 ar  
    17     6    43 1   
    18     7    22 ar  
    19     7    37 ar  
    20     7    44 1   
    21     8    21 ar  
    22     8    34 ar  
    23     8    45 1   
    24     9    20 ar  
    25     9    46 1   
    26    10    21 ar  
    27    10    22 ar  
    28    10    36 ar  
    29    11    47 1   
    30    12    14 ar  
    31    12    19 ar  
    32    12    74 1   
    33    13    16 1   
    34    13    27 2   
    35    14    18 ar  
    36    14    48 1   
    37    15    20 ar  
    38    15    26 ar  
    39    15    49 1   
    40    16    18 1   
    41    16    50 1   
    42    17    28 ar  
    43    17    73 1   
    44    18    25 ar  
    45    19    26 ar  
    46    20    51 1   
    47    21    75 1   
    48    22    52 1   
    49    23    53 1   
    50    23    54 1   
    51    23    76 1   
    52    24    57 1   
    53    24    58 1   
    54    24    74 1   
    55    24    76 1   
    56    26    59 1   
    57    29    30 1   
    58    30    31 1   
    59    30    60 1   
    60    30    61 1   
    61    31    32 1   
    62    31    62 1   
    63    31    63 1   
    64    32    64 1   
    65    32    65 1   
    66    33    73 2   
    67    34    35 ar  
    68    35    36 ar  
    69    37    66 1   
    70    38    39 1   
    71    38    67 1   
    72    38    68 1   
    73    38    75 1   
    74    39    40 1   
    75    39    69 1   
    76    39    70 1   
    77    40    71 1   
    78    40    72 1   
    79    55    76 1   
    80    56    76 1   
@<TRIPOS>SUBSTRUCTURE
     1 7V8         1 TEMP              0 ****  ****    0 ROOT
