@<TRIPOS>MOLECULE
7V8
   76    80     1     0     0
SMALL
abcg2


@<TRIPOS>ATOM
      1 C6          -7.9650    -5.1100    -1.2770 ca         1 7V8       0.176100
      2 N13         -7.3460    -1.7260     2.0450 ns         1 7V8      -0.305400
      3 C2          -8.1320    -2.7700    -1.7250 ca         1 7V8       0.320500
      4 C5          -7.7040    -4.7770     0.0560 ca         1 7V8      -0.156000
      5 C18         -8.2270     3.1130    -2.3050 ca         1 7V8       0.328000
      6 C29         -6.8590     2.5200     3.8970 ca         1 7V8      -0.104000
      7 C31         -6.3340     2.8520     6.2330 ca         1 7V8      -0.135000
      8 C28         -6.8280    -1.6160     4.4400 ca         1 7V8      -0.290000
      9 C23         -7.9360     4.1760    -1.4190 ca         1 7V8      -0.104000
     10 C26         -6.5760     0.6060     5.3790 ca         1 7V8      -0.128000
     11 C1          -8.1880    -4.0780    -2.1900 ca         1 7V8      -0.156000
     12 C16         -8.9060     2.3290    -4.5030 ca         1 7V8       0.217600
     13 C7          -8.3720    -1.6430    -2.7020 c          1 7V8       0.523600
     14 C15         -8.7860     1.0400    -4.0370 ca         1 7V8      -0.290000
     15 C21         -8.4190     5.7860    -3.1570 ca         1 7V8      -0.135000
     16 N9          -8.2430    -0.4150    -2.1380 ns         1 7V8      -0.305400
     17 C4          -7.6690    -3.4410     0.4100 ca         1 7V8       0.320500
     18 C10         -8.3830     0.8580    -2.6950 ca         1 7V8       0.529900
     19 C17         -8.6210     3.4260    -3.6350 ca         1 7V8      -0.128000
     20 C22         -8.0290     5.4810    -1.8370 ca         1 7V8      -0.084000
     21 C27         -6.5740    -0.8150     5.5280 ca         1 7V8       0.217600
     22 C32         -6.3200     1.4940     6.4440 ca         1 7V8      -0.057000
     23 N36        -10.2130     1.1970    -8.9890 n8         1 7V8      -1.004200
     24 C34         -9.5710     1.5920    -6.6820 c3         1 7V8       0.161100
     25 N19         -8.1160     1.8340    -1.8540 nb         1 7V8      -0.749500
     26 C20         -8.7110     4.7740    -4.0410 ca         1 7V8      -0.057000
     27 O8          -8.6520    -1.8670    -3.8730 o          1 7V8      -0.581100
     28 N3          -7.8770    -2.4470    -0.4600 nb         1 7V8      -0.701000
     29 O49         -7.9810    -6.4140    -1.5810 os         1 7V8      -0.346100
     30 C50         -8.2110    -6.8080    -2.9470 c3         1 7V8       0.160600
     31 C51         -8.1240    -8.3200    -3.0020 c3         1 7V8       0.146800
     32 N52         -8.3700    -8.7620    -4.3770 n8         1 7V8      -1.004200
     33 O12         -7.1900    -3.9260     2.6980 o          1 7V8      -0.581100
     34 C14         -7.0850    -0.9880     3.2010 ca         1 7V8       0.529900
     35 N24         -7.1030     0.3140     3.0110 nb         1 7V8      -0.749500
     36 C25         -6.8520     1.1180     4.0810 ca         1 7V8       0.328000
     37 C30         -6.6060     3.3650     4.9490 ca         1 7V8      -0.084000
     38 C38         -6.2830    -2.6980     6.9750 c3         1 7V8       0.161100
     39 C39         -5.9480    -2.9280     8.4350 c3         1 7V8       0.146800
     40 N40         -5.9330    -4.3690     8.7010 n8         1 7V8      -1.004200
     41 H56         -7.5230    -1.1660     1.2190 hn         1 7V8       0.192000
     42 H54         -7.5290    -5.5470     0.7910 ha         1 7V8       0.161500
     43 H63         -7.0680     2.9030     2.9060 ha         1 7V8       0.132000
     44 H65         -6.1360     3.5310     7.0530 ha         1 7V8       0.115000
     45 H62         -6.8360    -2.6890     4.4990 ha         1 7V8       0.161000
     46 H61         -7.6370     3.9300    -0.4080 ha         1 7V8       0.132000
     47 H53         -8.3990    -4.2560    -3.2320 ha         1 7V8       0.161500
     48 H57         -8.9870     0.1810    -4.6490 ha         1 7V8       0.161000
     49 H59         -8.4880     6.8190    -3.4720 ha         1 7V8       0.115000
     50 H55         -7.9910    -0.4200    -1.1570 hn         1 7V8       0.192000
     51 H60         -7.8010     6.2850    -1.1480 ha         1 7V8       0.114500
     52 H66         -6.1120     1.0920     7.4250 ha         1 7V8       0.124500
     53 H34        -10.6210     1.6090    -9.8200 hn         1 7V8       0.401000
     54 H35         -9.3410     0.7690    -9.2830 hn         1 7V8       0.401000
     55 H69         -9.1480     2.9360    -8.2910 h1         1 7V8       0.044200
     56 H70        -10.8570     2.8310    -7.8590 h1         1 7V8       0.044200
     57 H67        -10.3930     0.9800    -6.3030 h1         1 7V8       0.054950
     58 H68         -8.6850     0.9610    -6.8000 h1         1 7V8       0.054950
     59 H58         -9.0100     4.9990    -5.0550 ha         1 7V8       0.124500
     60 H92         -7.4560    -6.3540    -3.5920 h1         1 7V8       0.053200
     61 H91         -9.2010    -6.4620    -3.2600 h1         1 7V8       0.053200
     62 H94         -8.8220    -8.7440    -2.2690 h1         1 7V8       0.047700
     63 H93         -7.1170    -8.6270    -2.7120 h1         1 7V8       0.047700
     64 H97         -8.1550    -9.7490    -4.4620 hn         1 7V8       0.402500
     65 H95         -9.3560    -8.6660    -4.5990 hn         1 7V8       0.402500
     66 H64         -6.6140     4.4370     4.7920 ha         1 7V8       0.114500
     67 H71         -7.2610    -3.1220     6.7280 h1         1 7V8       0.054950
     68 H72         -5.5280    -3.1510     6.3290 h1         1 7V8       0.054950
     69 H73         -4.9530    -2.5270     8.6390 h1         1 7V8       0.044200
     70 H74         -6.6610    -2.3720     9.0560 h1         1 7V8       0.044200
     71 H31         -5.5460    -4.5430     9.6220 hn         1 7V8       0.401000
     72 H32         -6.8820    -4.7280     8.7200 hn         1 7V8       0.401000
     73 C11         -7.3770    -3.0690     1.8430 c          1 7V8       0.523600
     74 O33         -9.2830     2.6460    -5.7490 os         1 7V8      -0.353100
     75 O37         -6.3140    -1.2780     6.7590 os         1 7V8      -0.353100
     76 C35         -9.9470     2.2430    -7.9980 c3         1 7V8       0.146800
@<TRIPOS>BOND
     1     1     4 ar  
     2     1    11 ar  
     3     1    29 1   
     4     2    34 1   
     5     2    41 1   
     6     2    73 1   
     7     3    11 ar  
     8     3    13 1   
     9     3    28 ar  
    10     4    17 ar  
    11     4    42 1   
    12     5     9 ar  
    13     5    19 ar  
    14     5    25 ar  
    15     6    36 ar  
    16     6    37 ar  
    17     6    43 1   
    18     7    22 ar  
    19     7    37 ar  
    20     7    44 1   
    21     8    21 ar  
    22     8    34 ar  
    23     8    45 1   
    24     9    20 ar  
    25     9    46 1   
    26    10    21 ar  
    27    10    22 ar  
    28    10    36 ar  
    29    11    47 1   
    30    12    14 ar  
    31    12    19 ar  
    32    12    74 1   
    33    13    16 1   
    34    13    27 2   
    35    14    18 ar  
    36    14    48 1   
    37    15    20 ar  
    38    15    26 ar  
    39    15    49 1   
    40    16    18 1   
    41    16    50 1   
    42    17    28 ar  
    43    17    73 1   
    44    18    25 ar  
    45    19    26 ar  
    46    20    51 1   
    47    21    75 1   
    48    22    52 1   
    49    23    53 1   
    50    23    54 1   
    51    23    76 1   
    52    24    57 1   
    53    24    58 1   
    54    24    74 1   
    55    24    76 1   
    56    26    59 1   
    57    29    30 1   
    58    30    31 1   
    59    30    60 1   
    60    30    61 1   
    61    31    32 1   
    62    31    62 1   
    63    31    63 1   
    64    32    64 1   
    65    32    65 1   
    66    33    73 2   
    67    34    35 ar  
    68    35    36 ar  
    69    37    66 1   
    70    38    39 1   
    71    38    67 1   
    72    38    68 1   
    73    38    75 1   
    74    39    40 1   
    75    39    69 1   
    76    39    70 1   
    77    40    71 1   
    78    40    72 1   
    79    55    76 1   
    80    56    76 1   
@<TRIPOS>SUBSTRUCTURE
     1 7V8         1 TEMP              0 ****  ****    0 ROOT
