@<TRIPOS>MOLECULE
7VA
   47    50     1     0     0
SMALL
No Charge or Current Charge


@<TRIPOS>ATOM
      1 C10          2.6070    -0.1600    -1.3920 ca         1 7VA      -0.059500
      2 C13          1.1840    -1.6860     0.4930 ca         1 7VA      -0.169000
      3 C17         -3.1650    -1.0410     0.3500 cc         1 7VA       0.400800
      4 C20         -5.2800    -1.1030    -0.1040 ca         1 7VA       0.032400
      5 C22         -6.0080     1.1780     0.3100 ca         1 7VA      -0.165000
      6 C24         -7.6040    -0.5190    -0.4470 ca         1 7VA      -0.212000
      7 C28         -9.6600     1.5390    -0.3680 c3         1 7VA       0.150900
      8 N01          7.6330     0.6530     0.5170 ns         1 7VA      -0.483500
      9 C02          7.0680    -0.5810     0.5520 c          1 7VA       0.575000
     10 C03          5.5340    -0.3990     0.6060 c5         1 7VA      -0.036700
     11 S04          5.1870     1.4410     0.5790 ss         1 7VA      -0.266600
     12 C05          6.9500     1.8200     0.5230 c          1 7VA       0.594600
     13 O06          7.4570     2.9270     0.4930 o          1 7VA      -0.462000
     14 C08          4.8260    -1.1080    -0.5750 c3         1 7VA      -0.000100
     15 C09          3.3050    -1.0110    -0.5130 ca         1 7VA      -0.135300
     16 C11          1.2060    -0.0730    -1.3270 ca         1 7VA      -0.169000
     17 C12          0.4880    -0.8310    -0.3890 ca         1 7VA       0.147100
     18 C14          2.5860    -1.7730     0.4280 ca         1 7VA      -0.059500
     19 O15         -0.8850    -0.7010    -0.3720 os         1 7VA      -0.344100
     20 C16         -1.7160    -1.4210     0.5640 c3         1 7VA       0.148300
     21 N18         -3.6910     0.2400     0.5650 na         1 7VA      -0.167600
     22 C19         -5.0200     0.1850     0.2710 ca         1 7VA      -0.037200
     23 N21         -4.1330    -1.8930    -0.0610 nd         1 7VA      -0.551100
     24 C23         -7.3210     0.8180    -0.0550 ca         1 7VA       0.159100
     25 C25         -6.5770    -1.4890    -0.4720 ca         1 7VA      -0.008000
     26 O27         -8.2890     1.8000    -0.0150 os         1 7VA      -0.345100
     27 H1           3.1480     0.4380    -2.1230 ha         1 7VA       0.116500
     28 H2           0.6600    -2.2870     1.2300 ha         1 7VA       0.126500
     29 H3          -5.7780     2.1970     0.6110 ha         1 7VA       0.132000
     30 H4          -8.6070    -0.8210    -0.7320 ha         1 7VA       0.118000
     31 H5          -3.0170     2.2040     0.1910 h1         1 7VA       0.053700
     32 H6          -3.5360     1.8890     1.8740 h1         1 7VA       0.053700
     33 H7          -1.9740     1.2550     1.2880 h1         1 7VA       0.053700
     34 H8          -9.7370     1.1960    -1.4070 h1         1 7VA       0.040700
     35 H9         -10.0930     0.7740     0.2900 h1         1 7VA       0.040700
     36 H10        -10.2590     2.4530    -0.2670 h1         1 7VA       0.040700
     37 H11          8.6400     0.7040     0.4820 hn         1 7VA       0.352500
     38 H12          5.1930    -0.6950    -1.5230 hc         1 7VA       0.069200
     39 H13          5.1130    -2.1670    -0.5880 hc         1 7VA       0.069200
     40 H14          0.6720     0.5860    -2.0060 ha         1 7VA       0.126500
     41 H15          3.1140    -2.4350     1.1110 ha         1 7VA       0.116500
     42 H16         -1.4390    -1.1780     1.5980 h1         1 7VA       0.061200
     43 H17         -1.6060    -2.5040     0.4250 h1         1 7VA       0.061200
     44 H18         -6.7840    -2.5140    -0.7710 ha         1 7VA       0.128000
     45 H19          5.1880    -0.8210     1.5580 h1         1 7VA       0.114700
     46 C26         -3.0120     1.4710     1.0070 c3         1 7VA       0.069900
     47 O07          7.7110    -1.6180     0.5330 o          1 7VA      -0.485000
@<TRIPOS>BOND
     1     1    15 ar  
     2     1    16 ar  
     3     1    27 1   
     4     2    17 ar  
     5     2    18 ar  
     6     2    28 1   
     7     3    20 1   
     8     3    21 1   
     9     3    23 2   
    10     4    22 ar  
    11     4    23 1   
    12     4    25 ar  
    13     5    22 ar  
    14     5    24 ar  
    15     5    29 1   
    16     6    24 ar  
    17     6    25 ar  
    18     6    30 1   
    19     7    26 1   
    20     7    34 1   
    21     7    35 1   
    22     7    36 1   
    23     8     9 1   
    24     8    12 1   
    25     8    37 1   
    26     9    10 1   
    27     9    47 2   
    28    10    11 1   
    29    10    14 1   
    30    10    45 1   
    31    11    12 1   
    32    12    13 2   
    33    14    15 1   
    34    14    38 1   
    35    14    39 1   
    36    15    18 ar  
    37    16    17 ar  
    38    16    40 1   
    39    17    19 1   
    40    18    41 1   
    41    19    20 1   
    42    20    42 1   
    43    20    43 1   
    44    21    22 1   
    45    21    46 1   
    46    24    26 1   
    47    25    44 1   
    48    31    46 1   
    49    32    46 1   
    50    33    46 1   
@<TRIPOS>SUBSTRUCTURE
     1 7VA         1 TEMP              0 ****  ****    0 ROOT
