@<TRIPOS>MOLECULE
7VA
   47    50     1     0     0
SMALL
abcg2


@<TRIPOS>ATOM
      1 C10          2.5030    -0.1960    -1.3970 ca         1 7VA      -0.059500
      2 C13          1.1030    -1.8020     0.3770 ca         1 7VA      -0.169000
      3 C17         -3.1150    -1.1030     0.3070 cc         1 7VA       0.400800
      4 C20         -5.2090    -1.1400    -0.0500 ca         1 7VA       0.032400
      5 C22         -5.8160     1.2170     0.2600 ca         1 7VA      -0.165000
      6 C24         -7.4850    -0.4640    -0.3100 ca         1 7VA      -0.212000
      7 C28         -9.3830     1.6080    -0.2620 c3         1 7VA       0.150900
      8 N01          7.3640     0.8510     0.6470 ns         1 7VA      -0.483500
      9 C02          6.8330    -0.4080     0.5990 c          1 7VA       0.575000
     10 C03          5.3170    -0.3730     0.6190 c5         1 7VA      -0.036700
     11 S04          4.8370     1.3800     0.6640 ss         1 7VA      -0.266600
     12 C05          6.5130     1.9300     0.6840 c          1 7VA       0.594600
     13 O06          6.8490     3.0810     0.7200 o          1 7VA      -0.462000
     14 C08          4.7150    -1.1060    -0.5810 c3         1 7VA      -0.000100
     15 C09          3.2130    -1.0570    -0.5620 ca         1 7VA      -0.135300
     16 C11          1.1220    -0.1300    -1.3550 ca         1 7VA      -0.169000
     17 C12          0.4110    -0.9340    -0.4640 ca         1 7VA       0.147100
     18 C14          2.4890    -1.8530     0.3180 ca         1 7VA      -0.059500
     19 O15         -0.9340    -0.8100    -0.4920 os         1 7VA      -0.344100
     20 C16         -1.6950    -1.5100     0.4750 c3         1 7VA       0.148300
     21 N18         -3.5320     0.1860     0.4790 na         1 7VA      -0.167600
     22 C19         -4.8800     0.1930     0.2420 ca         1 7VA      -0.037200
     23 N21         -4.0790    -1.9210    -0.0050 nd         1 7VA      -0.551100
     24 C23         -7.1330     0.8690    -0.0190 ca         1 7VA       0.159100
     25 C25         -6.5310    -1.4670    -0.3280 ca         1 7VA      -0.008000
     26 O27         -8.0240     1.8820     0.0090 os         1 7VA      -0.345100
     27 H1           3.0380     0.4360    -2.0970 ha         1 7VA       0.116500
     28 H2           0.5870    -2.4490     1.0740 ha         1 7VA       0.126500
     29 H3          -5.5520     2.2440     0.4780 ha         1 7VA       0.132000
     30 H4          -8.5110    -0.7260    -0.5260 ha         1 7VA       0.118000
     31 H5          -2.3880     1.8560    -0.0910 h1         1 7VA       0.053700
     32 H6          -3.3090     2.0290     1.4120 h1         1 7VA       0.053700
     33 H7          -1.8580     1.0400     1.3890 h1         1 7VA       0.053700
     34 H8          -9.5310     1.2140    -1.2710 h1         1 7VA       0.040700
     35 H9          -9.8120     0.9050     0.4570 h1         1 7VA       0.040700
     36 H10         -9.9100     2.5550    -0.1770 h1         1 7VA       0.040700
     37 H11          8.3670     0.9980     0.6350 hn         1 7VA       0.352500
     38 H12          5.0990    -0.6690    -1.5040 hc         1 7VA       0.069200
     39 H13          5.0580    -2.1420    -0.5430 hc         1 7VA       0.069200
     40 H14          0.5860     0.5440    -2.0110 ha         1 7VA       0.126500
     41 H15          3.0110    -2.5370     0.9770 ha         1 7VA       0.116500
     42 H16         -1.3430    -1.2790     1.4880 h1         1 7VA       0.061200
     43 H17         -1.6300    -2.5920     0.3370 h1         1 7VA       0.061200
     44 H18         -6.8170    -2.4860    -0.5540 ha         1 7VA       0.128000
     45 H19          4.9840    -0.8440     1.5470 h1         1 7VA       0.114700
     46 C26         -2.7250     1.3390     0.8070 c3         1 7VA       0.069900
     47 O07          7.4810    -1.4220     0.5390 o          1 7VA      -0.485000
@<TRIPOS>BOND
     1     1    15 ar  
     2     1    16 ar  
     3     1    27 1   
     4     2    17 ar  
     5     2    18 ar  
     6     2    28 1   
     7     3    20 1   
     8     3    21 1   
     9     3    23 2   
    10     4    22 ar  
    11     4    23 1   
    12     4    25 ar  
    13     5    22 ar  
    14     5    24 ar  
    15     5    29 1   
    16     6    24 ar  
    17     6    25 ar  
    18     6    30 1   
    19     7    26 1   
    20     7    34 1   
    21     7    35 1   
    22     7    36 1   
    23     8     9 1   
    24     8    12 1   
    25     8    37 1   
    26     9    10 1   
    27     9    47 2   
    28    10    11 1   
    29    10    14 1   
    30    10    45 1   
    31    11    12 1   
    32    12    13 2   
    33    14    15 1   
    34    14    38 1   
    35    14    39 1   
    36    15    18 ar  
    37    16    17 ar  
    38    16    40 1   
    39    17    19 1   
    40    18    41 1   
    41    19    20 1   
    42    20    42 1   
    43    20    43 1   
    44    21    22 1   
    45    21    46 1   
    46    24    26 1   
    47    25    44 1   
    48    31    46 1   
    49    32    46 1   
    50    33    46 1   
@<TRIPOS>SUBSTRUCTURE
     1 7VA         1 TEMP              0 ****  ****    0 ROOT
