@<TRIPOS>MOLECULE
7VB
   74    75     1     0     0
SMALL
No Charge or Current Charge


@<TRIPOS>ATOM
      1 C1           6.8860   -13.7510    20.9090 ca         1 7VB      -0.101000
      2 C11          8.7860    -7.3690    18.7670 c3         1 7VB       0.056700
      3 C12          8.9010    -6.1630    17.7890 c          1 7VB       0.581100
      4 C14          9.6310    -3.7370    17.6250 c3         1 7VB       0.038700
      5 C15         10.9910    -3.1600    18.1010 c          1 7VB       0.583100
      6 C17         13.0380    -1.8970    17.3290 c3         1 7VB       0.104700
      7 C19         14.0030    -2.5700    16.3150 c3         1 7VB      -0.070400
      8 C2           6.8610   -13.5700    19.5160 ca         1 7VB      -0.114500
      9 C20         14.0230    -4.1270    16.3480 c5         1 7VB      -0.155700
     10 C21         14.4690    -4.7600    17.6960 c5         1 7VB      -0.095400
     11 C22         14.8670    -6.1910    17.2450 c5         1 7VB       0.099000
     12 C24         15.0020    -4.7560    15.3470 c          1 7VB       0.564000
     13 C3           6.2080   -12.4540    18.9630 ca         1 7VB      -0.086500
     14 C30         10.1000    -8.2200    18.8210 c3         1 7VB      -0.071700
     15 C31          9.9940    -9.4230    19.7940 c3         1 7VB      -0.092600
     16 C32         11.3580    -7.3770    19.1540 c3         1 7VB      -0.092600
     17 C34          8.4920    -2.7020    17.8140 c3         1 7VB      -0.048200
     18 C35          7.1530    -3.1360    17.2350 c2         1 7VB      -0.115400
     19 C36          6.2040    -3.7600    18.2440 c3         1 7VB      -0.060900
     20 C37          6.8250    -2.9470    15.9470 c2         1 7VB      -0.316000
     21 C4           5.5780   -11.5110    19.7990 ca         1 7VB      -0.125300
     22 C5           5.6070   -11.6990    21.1960 ca         1 7VB      -0.086500
     23 C6           6.2600   -12.8150    21.7480 ca         1 7VB      -0.114500
     24 C7           4.8760   -10.2970    19.1930 c3         1 7VB       0.230900
     25 C8          13.0360    -0.3460    17.2450 c3         1 7VB       0.150600
     26 C9           6.7420    -8.7830    19.2170 c          1 7VB       0.644100
     27 N10          7.6340    -8.2030    18.3620 ns         1 7VB      -0.493900
     28 N13          9.3610    -4.9920    18.3580 ns         1 7VB      -0.480900
     29 N16         11.6750    -2.4220    17.1580 ns         1 7VB      -0.497900
     30 N23         15.4560    -5.9040    15.9390 ns         1 7VB      -0.515900
     31 O26         15.5000    -4.2810    14.3400 o          1 7VB      -0.557000
     32 O29          6.7440    -8.6480    20.4300 o          1 7VB      -0.542000
     33 O38         11.4410    -3.3630    19.2220 o          1 7VB      -0.611100
     34 O8           5.8410    -9.4960    18.4870 os         1 7VB      -0.455100
     35 O9          14.3300     0.1920    17.5560 oh         1 7VB      -0.657000
     36 H1           7.3920   -14.6140    21.3370 ha         1 7VB       0.112000
     37 H2           8.5880    -6.9570    19.7650 h1         1 7VB       0.087700
     38 H3           9.7330    -3.9610    16.5550 h1         1 7VB       0.081700
     39 H4          13.3890    -2.1560    18.3370 h1         1 7VB       0.092700
     40 H5          15.0180    -2.1950    16.4940 hc         1 7VB       0.066700
     41 H6          13.7320    -2.2340    15.3060 hc         1 7VB       0.066700
     42 H7           7.3460   -14.2940    18.8640 ha         1 7VB       0.113000
     43 H8          13.0300    -4.5190    16.1000 hc         1 7VB       0.087700
     44 H9          15.3330    -4.2320    18.1180 hc         1 7VB       0.064700
     45 H10         13.6820    -4.7650    18.4580 hc         1 7VB       0.064700
     46 H11         13.9880    -6.8430    17.1510 h1         1 7VB       0.041700
     47 H12         15.5770    -6.6600    17.9400 h1         1 7VB       0.041700
     48 H13          6.1950   -12.3200    17.8830 ha         1 7VB       0.116000
     49 H14         10.2590    -8.6370    17.8180 hc         1 7VB       0.064700
     50 H15         10.9370    -9.9810    19.8260 hc         1 7VB       0.040867
     51 H16          9.7640    -9.0830    20.8110 hc         1 7VB       0.040867
     52 H17          9.2130   -10.1240    19.4780 hc         1 7VB       0.040867
     53 H18         12.2460    -8.0170    19.2250 hc         1 7VB       0.040867
     54 H19         11.5600    -6.6340    18.3740 hc         1 7VB       0.040867
     55 H20         11.2390    -6.8550    20.1110 hc         1 7VB       0.040867
     56 H21          8.3960    -2.4490    18.8780 hc         1 7VB       0.061700
     57 H22          8.8020    -1.7720    17.3210 hc         1 7VB       0.061700
     58 H23          6.6260    -4.6650    18.6950 hc         1 7VB       0.046033
     59 H24          5.9750    -3.0600    19.0560 hc         1 7VB       0.046033
     60 H25          5.2520    -4.0440    17.7800 hc         1 7VB       0.046033
     61 H26          7.5160    -2.4840    15.2420 ha         1 7VB       0.163500
     62 H27          5.8560    -3.2510    15.5510 ha         1 7VB       0.163500
     63 H28          5.1290   -10.9770    21.8550 ha         1 7VB       0.116000
     64 H29          6.2800   -12.9530    22.8270 ha         1 7VB       0.113000
     65 H30          4.3690    -9.7120    19.9720 h1         1 7VB       0.068200
     66 H31          4.1040   -10.6520    18.4980 h1         1 7VB       0.068200
     67 H32         12.2920     0.0440    17.9520 h1         1 7VB       0.023200
     68 H33         12.7290    -0.0400    16.2370 h1         1 7VB       0.023200
     69 H34          7.4770    -8.3730    17.3760 hn         1 7VB       0.340500
     70 H35          9.6070    -5.0250    19.3420 hn         1 7VB       0.330500
     71 H36         11.2250    -2.3000    16.2580 hn         1 7VB       0.319500
     72 H37         16.1860    -6.4370    15.4810 hn         1 7VB       0.324500
     73 H38         14.2580     1.1710    17.4920 ho         1 7VB       0.449000
     74 O33          8.6080    -6.2380    16.6010 o          1 7VB      -0.609100
@<TRIPOS>BOND
     1     1     8 ar  
     2     1    23 ar  
     3     1    36 1   
     4     2     3 1   
     5     2    14 1   
     6     2    27 1   
     7     2    37 1   
     8     3    28 1   
     9     3    74 2   
    10     4     5 1   
    11     4    17 1   
    12     4    28 1   
    13     4    38 1   
    14     5    29 1   
    15     5    33 2   
    16     6     7 1   
    17     6    25 1   
    18     6    29 1   
    19     6    39 1   
    20     7     9 1   
    21     7    40 1   
    22     7    41 1   
    23     8    13 ar  
    24     8    42 1   
    25     9    10 1   
    26     9    12 1   
    27     9    43 1   
    28    10    11 1   
    29    10    44 1   
    30    10    45 1   
    31    11    30 1   
    32    11    46 1   
    33    11    47 1   
    34    12    30 1   
    35    12    31 2   
    36    13    21 ar  
    37    13    48 1   
    38    14    15 1   
    39    14    16 1   
    40    14    49 1   
    41    15    50 1   
    42    15    51 1   
    43    15    52 1   
    44    16    53 1   
    45    16    54 1   
    46    16    55 1   
    47    17    18 1   
    48    17    56 1   
    49    17    57 1   
    50    18    19 1   
    51    18    20 2   
    52    19    58 1   
    53    19    59 1   
    54    19    60 1   
    55    20    61 1   
    56    20    62 1   
    57    21    22 ar  
    58    21    24 1   
    59    22    23 ar  
    60    22    63 1   
    61    23    64 1   
    62    24    34 1   
    63    24    65 1   
    64    24    66 1   
    65    25    35 1   
    66    25    67 1   
    67    25    68 1   
    68    26    27 1   
    69    26    32 2   
    70    26    34 1   
    71    27    69 1   
    72    28    70 1   
    73    29    71 1   
    74    30    72 1   
    75    35    73 1   
@<TRIPOS>SUBSTRUCTURE
     1 7VB         1 TEMP              0 ****  ****    0 ROOT
