@<TRIPOS>MOLECULE
7VB
   74    75     1     0     0
SMALL
abcg2


@<TRIPOS>ATOM
      1 C1           5.8990   -13.0180    20.8880 ca         1 7VB      -0.101000
      2 C11          9.5170    -7.4600    18.7310 c3         1 7VB       0.056700
      3 C12          9.6210    -6.1530    17.9500 c          1 7VB       0.581100
      4 C14          9.3120    -3.7350    18.0020 c3         1 7VB       0.038700
      5 C15         10.7490    -3.2200    18.1160 c          1 7VB       0.583100
      6 C17         12.6360    -2.2830    16.8160 c3         1 7VB       0.104700
      7 C19         13.4910    -3.2110    15.9550 c3         1 7VB      -0.070400
      8 C2           6.8540   -13.0410    19.8790 ca         1 7VB      -0.114500
      9 C20         13.6630    -4.5980    16.5540 c5         1 7VB      -0.155700
     10 C21         14.4300    -4.6560    17.8760 c5         1 7VB      -0.095400
     11 C22         15.0990    -6.0320    17.8530 c5         1 7VB       0.099000
     12 C24         14.4540    -5.5330    15.6500 c          1 7VB       0.564000
     13 C3           6.7960   -12.1200    18.8430 ca         1 7VB      -0.086500
     14 C30         10.9160    -8.0230    19.0280 c3         1 7VB      -0.071700
     15 C31         10.8150    -9.3290    19.8080 c3         1 7VB      -0.092600
     16 C32         11.7520    -7.0060    19.7970 c3         1 7VB      -0.092600
     17 C34          8.3700    -2.7390    18.6870 c3         1 7VB      -0.048200
     18 C35          6.9060    -3.0340    18.4730 c2         1 7VB      -0.115400
     19 C36          6.2550    -4.0430    19.3720 c3         1 7VB      -0.060900
     20 C37          6.2250    -2.3980    17.5210 c2         1 7VB      -0.316000
     21 C4           5.7880   -11.1590    18.8070 ca         1 7VB      -0.125300
     22 C5           4.8390   -11.1390    19.8230 ca         1 7VB      -0.086500
     23 C6           4.8890   -12.0660    20.8550 ca         1 7VB      -0.114500
     24 C7           5.7100   -10.1740    17.6730 c3         1 7VB       0.230900
     25 C8          12.5370    -0.8760    16.2330 c3         1 7VB       0.150600
     26 C9           7.4580    -8.7080    18.2650 c          1 7VB       0.644100
     27 N10          8.7310    -8.3950    17.9650 ns         1 7VB      -0.493900
     28 N13          9.2190    -5.0480    18.5970 ns         1 7VB      -0.480900
     29 N16         11.2950    -2.8120    16.9620 ns         1 7VB      -0.497900
     30 N23         15.2510    -6.2760    16.4350 ns         1 7VB      -0.515900
     31 O26         14.3680    -5.6080    14.4350 o          1 7VB      -0.557000
     32 O29          6.8220    -8.2640    19.1970 o          1 7VB      -0.542000
     33 O38         11.3080    -3.1820    19.2020 o          1 7VB      -0.611100
     34 O8           6.9760    -9.5920    17.3800 os         1 7VB      -0.455100
     35 O9          13.8270    -0.3200    16.1710 oh         1 7VB      -0.657000
     36 H1           5.9440   -13.7360    21.6960 ha         1 7VB       0.112000
     37 H2           9.0080    -7.2950    19.6840 h1         1 7VB       0.087700
     38 H3           9.0190    -3.8180    16.9540 h1         1 7VB       0.081700
     39 H4          13.0660    -2.2080    17.8170 h1         1 7VB       0.092700
     40 H5          14.4730    -2.7550    15.8140 hc         1 7VB       0.066700
     41 H6          13.0360    -3.2920    14.9630 hc         1 7VB       0.066700
     42 H7           7.6440   -13.7800    19.8970 ha         1 7VB       0.113000
     43 H8          12.6790    -5.0670    16.6810 hc         1 7VB       0.087700
     44 H9          15.1950    -3.8750    17.8960 hc         1 7VB       0.064700
     45 H10         13.7940    -4.5190    18.7480 hc         1 7VB       0.064700
     46 H11         14.4700    -6.7950    18.3210 h1         1 7VB       0.041700
     47 H12         16.0630    -6.0370    18.3600 h1         1 7VB       0.041700
     48 H13          7.5440   -12.1540    18.0600 ha         1 7VB       0.116000
     49 H14         11.4090    -8.2240    18.0700 hc         1 7VB       0.064700
     50 H15         11.8100    -9.7290    20.0060 hc         1 7VB       0.040867
     51 H16         10.3230    -9.1710    20.7710 hc         1 7VB       0.040867
     52 H17         10.2550   -10.0910    19.2670 hc         1 7VB       0.040867
     53 H18         12.7280    -7.4260    20.0390 hc         1 7VB       0.040867
     54 H19         11.9290    -6.0900    19.2320 hc         1 7VB       0.040867
     55 H20         11.2660    -6.7310    20.7360 hc         1 7VB       0.040867
     56 H21          8.6000    -2.7040    19.7560 hc         1 7VB       0.061700
     57 H22          8.5970    -1.7500    18.2820 hc         1 7VB       0.061700
     58 H23          6.6090    -5.0560    19.1720 hc         1 7VB       0.046033
     59 H24          6.4820    -3.8340    20.4200 hc         1 7VB       0.046033
     60 H25          5.1720    -4.0440    19.2520 hc         1 7VB       0.046033
     61 H26          6.6960    -1.6610    16.8810 ha         1 7VB       0.163500
     62 H27          5.1740    -2.5910    17.3490 ha         1 7VB       0.163500
     63 H28          4.0560   -10.3900    19.8110 ha         1 7VB       0.116000
     64 H29          4.1440   -12.0380    21.6400 ha         1 7VB       0.113000
     65 H30          4.9610    -9.4070    17.8770 h1         1 7VB       0.068200
     66 H31          5.4230   -10.6780    16.7490 h1         1 7VB       0.068200
     67 H32         11.8680    -0.2830    16.8690 h1         1 7VB       0.023200
     68 H33         12.0700    -0.9340    15.2390 h1         1 7VB       0.023200
     69 H34          9.1550    -8.8110    17.1500 hn         1 7VB       0.340500
     70 H35          8.9830    -5.1150    19.5750 hn         1 7VB       0.330500
     71 H36         10.7670    -2.9480    16.1130 hn         1 7VB       0.319500
     72 H37         15.7900    -7.0470    16.0720 hn         1 7VB       0.324500
     73 H38         13.7670     0.5410    15.7490 ho         1 7VB       0.449000
     74 O33         10.0370    -6.1400    16.8010 o          1 7VB      -0.609100
@<TRIPOS>BOND
     1     1     8 ar  
     2     1    23 ar  
     3     1    36 1   
     4     2     3 1   
     5     2    14 1   
     6     2    27 1   
     7     2    37 1   
     8     3    28 1   
     9     3    74 2   
    10     4     5 1   
    11     4    17 1   
    12     4    28 1   
    13     4    38 1   
    14     5    29 1   
    15     5    33 2   
    16     6     7 1   
    17     6    25 1   
    18     6    29 1   
    19     6    39 1   
    20     7     9 1   
    21     7    40 1   
    22     7    41 1   
    23     8    13 ar  
    24     8    42 1   
    25     9    10 1   
    26     9    12 1   
    27     9    43 1   
    28    10    11 1   
    29    10    44 1   
    30    10    45 1   
    31    11    30 1   
    32    11    46 1   
    33    11    47 1   
    34    12    30 1   
    35    12    31 2   
    36    13    21 ar  
    37    13    48 1   
    38    14    15 1   
    39    14    16 1   
    40    14    49 1   
    41    15    50 1   
    42    15    51 1   
    43    15    52 1   
    44    16    53 1   
    45    16    54 1   
    46    16    55 1   
    47    17    18 1   
    48    17    56 1   
    49    17    57 1   
    50    18    19 1   
    51    18    20 2   
    52    19    58 1   
    53    19    59 1   
    54    19    60 1   
    55    20    61 1   
    56    20    62 1   
    57    21    22 ar  
    58    21    24 1   
    59    22    23 ar  
    60    22    63 1   
    61    23    64 1   
    62    24    34 1   
    63    24    65 1   
    64    24    66 1   
    65    25    35 1   
    66    25    67 1   
    67    25    68 1   
    68    26    27 1   
    69    26    32 2   
    70    26    34 1   
    71    27    69 1   
    72    28    70 1   
    73    29    71 1   
    74    30    72 1   
    75    35    73 1   
@<TRIPOS>SUBSTRUCTURE
     1 7VB         1 TEMP              0 ****  ****    0 ROOT
