@<TRIPOS>MOLECULE
7VC
   35    37     1     0     0
SMALL
No Charge or Current Charge


@<TRIPOS>ATOM
      1 C4          -0.9810     3.1840     0.4590 ca         1 7VC       0.361900
      2 C5           1.5220     0.3420     0.2390 cp         1 7VC      -0.086000
      3 C6           2.5330     0.6790    -0.6920 ca         1 7VC      -0.060000
      4 C10          3.0230    -1.3540     1.1790 ca         1 7VC      -0.208000
      5 C1          -2.2230     1.2430     0.1570 ca         1 7VC       0.303000
      6 C2           0.2240     1.0800     0.2490 cp         1 7VC       0.039000
      7 C12         -1.1560    -0.9400    -0.1240 ca         1 7VC      -0.055000
      8 C14         -3.4740     0.6210     0.0160 ca         1 7VC      -0.139000
      9 C16         -5.0690    -2.7010    -0.5370 c3         1 7VC       0.150900
     10 C8           4.0090    -1.0170     0.2390 ca         1 7VC       0.145100
     11 C7           3.7710     0.0060    -0.7040 ca         1 7VC      -0.108300
     12 C9           1.7920    -0.6780     1.1830 ca         1 7VC      -0.057000
     13 C3           0.2270     2.4790     0.4190 ca         1 7VC      -0.178000
     14 N           -2.1830     2.5830     0.3360 nb         1 7VC      -0.666000
     15 C           -1.0450     0.4510     0.1000 ca         1 7VC      -0.105000
     16 C13         -2.4160    -1.5430    -0.2650 ca         1 7VC      -0.183000
     17 C15         -3.5830    -0.7600    -0.1900 ca         1 7VC       0.148100
     18 O           -4.8490    -1.2960    -0.3210 os         1 7VC      -0.339100
     19 H1          -0.9890     4.2640     0.5990 h4         1 7VC       0.018100
     20 H2           2.3410     1.4680    -1.4150 ha         1 7VC       0.119000
     21 H3           3.2030    -2.1360     1.9120 ha         1 7VC       0.115000
     22 H4           5.0930    -0.4630    -2.3660 hc         1 7VC       0.044367
     23 H5           4.4940     1.2010    -2.3870 hc         1 7VC       0.044367
     24 H6           5.7510     0.7330    -1.2350 hc         1 7VC       0.044367
     25 H7          -0.2720    -1.5670    -0.2030 ha         1 7VC       0.120000
     26 H8          -4.3760     1.2230     0.0630 ha         1 7VC       0.145000
     27 H9          -4.5950    -3.0320    -1.4690 h1         1 7VC       0.041367
     28 H10         -4.6630    -3.2920     0.2950 h1         1 7VC       0.041367
     29 H11         -6.1430    -2.9100    -0.6090 h1         1 7VC       0.041367
     30 H12          5.1700    -2.3490     0.9740 ho         1 7VC       0.465000
     31 H13          1.0380    -0.9390     1.9230 ha         1 7VC       0.120000
     32 H14          1.1630     3.0170     0.5350 ha         1 7VC       0.125000
     33 H15         -2.4640    -2.6150    -0.4350 ha         1 7VC       0.118000
     34 C11          4.8340     0.3920    -1.7290 c3         1 7VC      -0.034800
     35 O1           5.1990    -1.6850     0.2530 oh         1 7VC      -0.531100
@<TRIPOS>BOND
     1     1    13 ar  
     2     1    14 ar  
     3     1    19 1   
     4     2     3 ar  
     5     2     6 1   
     6     2    12 ar  
     7     3    11 ar  
     8     3    20 1   
     9     4    10 ar  
    10     4    12 ar  
    11     4    21 1   
    12     5     8 ar  
    13     5    14 ar  
    14     5    15 ar  
    15     6    13 ar  
    16     6    15 ar  
    17     7    15 ar  
    18     7    16 ar  
    19     7    25 1   
    20     8    17 ar  
    21     8    26 1   
    22     9    18 1   
    23     9    27 1   
    24     9    28 1   
    25     9    29 1   
    26    10    11 ar  
    27    10    35 1   
    28    11    34 1   
    29    12    31 1   
    30    13    32 1   
    31    16    17 ar  
    32    16    33 1   
    33    17    18 1   
    34    22    34 1   
    35    23    34 1   
    36    24    34 1   
    37    30    35 1   
@<TRIPOS>SUBSTRUCTURE
     1 7VC         1 TEMP              0 ****  ****    0 ROOT
