@<TRIPOS>MOLECULE
7VC
   35    37     1     0     0
SMALL
abcg2


@<TRIPOS>ATOM
      1 C4          -0.9920     3.1240     0.3620 ca         1 7VC       0.361900
      2 C5           1.5050     0.3160     0.2180 cp         1 7VC      -0.086000
      3 C6           2.5370     0.6900    -0.6440 ca         1 7VC      -0.060000
      4 C10          2.9540    -1.3920     1.1140 ca         1 7VC      -0.208000
      5 C1          -2.2060     1.2100     0.1300 ca         1 7VC       0.303000
      6 C2           0.2300     1.0590     0.2140 cp         1 7VC       0.039000
      7 C12         -1.1850    -0.9740    -0.1390 ca         1 7VC      -0.055000
      8 C14         -3.4690     0.6030     0.0140 ca         1 7VC      -0.139000
      9 C16         -5.0030    -2.6470    -0.4490 c3         1 7VC       0.150900
     10 C8           3.9640    -1.0130     0.2360 ca         1 7VC       0.145100
     11 C7           3.7640     0.0430    -0.6600 ca         1 7VC      -0.108300
     12 C9           1.7340    -0.7350     1.1020 ca         1 7VC      -0.057000
     13 C3           0.2290     2.4270     0.3390 ca         1 7VC      -0.178000
     14 N           -2.1650     2.5580     0.2760 nb         1 7VC      -0.666000
     15 C           -1.0300     0.4110     0.0800 ca         1 7VC      -0.105000
     16 C13         -2.4200    -1.5510    -0.2600 ca         1 7VC      -0.183000
     17 C15         -3.5870    -0.7560    -0.1710 ca         1 7VC       0.148100
     18 O           -4.8300    -1.2540    -0.2690 os         1 7VC      -0.339100
     19 H1          -0.9790     4.2040     0.4700 h4         1 7VC       0.018100
     20 H2           2.3770     1.5040    -1.3420 ha         1 7VC       0.119000
     21 H3           3.1180    -2.2030     1.8150 ha         1 7VC       0.115000
     22 H4           5.0880    -0.3500    -2.3150 hc         1 7VC       0.044367
     23 H5           4.5410     1.3200    -2.1940 hc         1 7VC       0.044367
     24 H6           5.7710     0.7070    -1.0920 hc         1 7VC       0.044367
     25 H7          -0.3110    -1.6050    -0.2280 ha         1 7VC       0.120000
     26 H8          -4.3510     1.2290     0.0660 ha         1 7VC       0.145000
     27 H9          -4.5480    -2.9990    -1.3780 h1         1 7VC       0.041367
     28 H10         -4.5960    -3.2210     0.3870 h1         1 7VC       0.041367
     29 H11         -6.0750    -2.8180    -0.5000 h1         1 7VC       0.041367
     30 H12          5.1930    -2.3440     0.8490 ho         1 7VC       0.465000
     31 H13          0.9680    -1.0370     1.8050 ha         1 7VC       0.120000
     32 H14          1.1540     2.9770     0.4540 ha         1 7VC       0.125000
     33 H15         -2.4830    -2.6160    -0.4310 ha         1 7VC       0.118000
     34 C11          4.8470     0.4510    -1.6140 c3         1 7VC      -0.034800
     35 O1           5.1620    -1.6280     0.2040 oh         1 7VC      -0.531100
@<TRIPOS>BOND
     1     1    13 ar  
     2     1    14 ar  
     3     1    19 1   
     4     2     3 ar  
     5     2     6 1   
     6     2    12 ar  
     7     3    11 ar  
     8     3    20 1   
     9     4    10 ar  
    10     4    12 ar  
    11     4    21 1   
    12     5     8 ar  
    13     5    14 ar  
    14     5    15 ar  
    15     6    13 ar  
    16     6    15 ar  
    17     7    15 ar  
    18     7    16 ar  
    19     7    25 1   
    20     8    17 ar  
    21     8    26 1   
    22     9    18 1   
    23     9    27 1   
    24     9    28 1   
    25     9    29 1   
    26    10    11 ar  
    27    10    35 1   
    28    11    34 1   
    29    12    31 1   
    30    13    32 1   
    31    16    17 ar  
    32    16    33 1   
    33    17    18 1   
    34    22    34 1   
    35    23    34 1   
    36    24    34 1   
    37    30    35 1   
@<TRIPOS>SUBSTRUCTURE
     1 7VC         1 TEMP              0 ****  ****    0 ROOT
