@<TRIPOS>MOLECULE
7VD
   13    12     1     0     0
SMALL
No Charge or Current Charge


@<TRIPOS>ATOM
      1 P1          -0.7520     0.0870    -0.2320 p5         1 7VD       1.293500
      2 C1           0.5850     1.0910     0.4370 c3         1 7VD      -0.477400
      3 O2          -0.2230    -0.7510    -1.3430 o          1 7VD      -0.921167
      4 O3          -1.3170    -0.7600     0.8540 o          1 7VD      -0.921167
      5 O4          -1.7910     1.0240    -0.7430 o          1 7VD      -0.921167
      6 C6           1.7410     0.1270     0.5240 c          1 7VD       0.626100
      7 O7           1.9110    -0.5730     1.5160 o          1 7VD      -0.645100
      8 C8           2.8870     0.3620    -0.4670 c3         1 7VD      -0.209100
      9 H1           0.7640     1.8830    -0.2970 hc         1 7VD       0.034200
     10 H2           0.2890     1.4760     1.4180 hc         1 7VD       0.034200
     11 H5           3.1610     1.4230    -0.4480 hc         1 7VD       0.036367
     12 H6           3.7620    -0.2660    -0.2610 hc         1 7VD       0.036367
     13 H7           2.5180     0.2340    -1.4910 hc         1 7VD       0.036367
@<TRIPOS>BOND
     1     1     2 1   
     2     1     3 1   
     3     1     4 1   
     4     1     5 1   
     5     2     6 1   
     6     2     9 1   
     7     2    10 1   
     8     6     7 2   
     9     6     8 1   
    10     8    11 1   
    11     8    12 1   
    12     8    13 1   
@<TRIPOS>SUBSTRUCTURE
     1 7VD         1 TEMP              0 ****  ****    0 ROOT
