@<TRIPOS>MOLECULE
7VD
   13    12     1     0     0
SMALL
bcc


@<TRIPOS>ATOM
      1 P1          -0.7450     0.0410    -0.3780 p5         1 7VD       1.135700
      2 C1           0.5920     1.1390     0.4390 c3         1 7VD      -0.319600
      3 O2          -0.1510    -0.3520    -1.7340 o          1 7VD      -0.921167
      4 O3          -0.9200    -1.1220     0.5960 o          1 7VD      -0.921167
      5 O4          -1.9470     0.9810    -0.4730 o          1 7VD      -0.921167
      6 C6           1.8220     0.3680     0.7150 c          1 7VD       0.626100
      7 O7           2.0380    -0.1810     1.7830 o          1 7VD      -0.645100
      8 C8           2.7950     0.2540    -0.4300 c3         1 7VD      -0.209100
      9 H1           0.7930     1.9690    -0.2410 hc         1 7VD       0.034200
     10 H2           0.1740     1.5320     1.3680 hc         1 7VD       0.034200
     11 H5           3.2530     1.2270    -0.6230 hc         1 7VD       0.036367
     12 H6           3.5830    -0.4690    -0.2250 hc         1 7VD       0.036367
     13 H7           2.2480    -0.0280    -1.3310 hc         1 7VD       0.036367
@<TRIPOS>BOND
     1     1     2 1   
     2     1     3 1   
     3     1     4 1   
     4     1     5 1   
     5     2     6 1   
     6     2     9 1   
     7     2    10 1   
     8     6     7 2   
     9     6     8 1   
    10     8    11 1   
    11     8    12 1   
    12     8    13 1   
@<TRIPOS>SUBSTRUCTURE
     1 7VD         1 TEMP              0 ****  ****    0 ROOT
