@<TRIPOS>MOLECULE
7VF
   32    34     1     0     0
SMALL
No Charge or Current Charge


@<TRIPOS>ATOM
      1 O1           4.9690     1.5090    -0.3690 oh         1 7VF      -0.536100
      2 C8           3.7390     0.9220    -0.3320 ca         1 7VF       0.152100
      3 C7           3.4570    -0.1070     0.5920 ca         1 7VF      -0.171300
      4 C11          4.5100    -0.6030     1.5820 c3         1 7VF      -0.051800
      5 C6           2.1720    -0.6880     0.5980 ca         1 7VF      -0.051000
      6 C10          2.7540     1.3530    -1.2320 ca         1 7VF      -0.149000
      7 C9           1.4780     0.7680    -1.2190 ca         1 7VF      -0.060000
      8 C5           1.1620    -0.2550    -0.2940 cp         1 7VF      -0.089000
      9 C2          -0.1850    -0.8990    -0.2840 cp         1 7VF       0.040000
     10 C3          -0.2870    -2.2900    -0.4920 ca         1 7VF      -0.178000
     11 C4          -1.5420    -2.9070    -0.5150 ca         1 7VF       0.362900
     12 N           -2.6940    -2.2260    -0.3400 nb         1 7VF      -0.666000
     13 C           -1.4000    -0.1860    -0.0810 ca         1 7VF      -0.106000
     14 C12         -1.4060     1.2030     0.1830 ca         1 7VF      -0.050000
     15 C13         -2.6160     1.8860     0.3770 ca         1 7VF      -0.192000
     16 C15         -3.8290     1.1900     0.3160 ca         1 7VF       0.145100
     17 O           -5.0070     1.8490     0.5040 oh         1 7VF      -0.529100
     18 C14         -3.8340    -0.1870     0.0710 ca         1 7VF      -0.137000
     19 C1          -2.6340    -0.8920    -0.1240 ca         1 7VF       0.304000
     20 H1           5.5270     1.0900     0.3190 ho         1 7VF       0.469000
     21 H2           4.8450     0.2050     2.2430 hc         1 7VF       0.043700
     22 H3           4.1200    -1.4040     2.2220 hc         1 7VF       0.043700
     23 H4           5.3870    -1.0050     1.0600 hc         1 7VF       0.043700
     24 H5           1.9420    -1.4820     1.3060 ha         1 7VF       0.116000
     25 H6           2.9810     2.1410    -1.9460 ha         1 7VF       0.131000
     26 H7           0.7260     1.1040    -1.9300 ha         1 7VF       0.122000
     27 H8           0.6050    -2.8890    -0.6500 ha         1 7VF       0.125000
     28 H9          -1.6310    -3.9790    -0.6830 h4         1 7VF       0.018100
     29 H10         -0.4770     1.7630     0.2530 ha         1 7VF       0.123000
     30 H11         -2.6020     2.9550     0.5780 ha         1 7VF       0.114000
     31 H12         -4.8110     2.7970     0.6640 ho         1 7VF       0.465000
     32 H13         -4.7790    -0.7210     0.0350 ha         1 7VF       0.146000
@<TRIPOS>BOND
     1     1     2 1   
     2     1    20 1   
     3     2     3 ar  
     4     2     6 ar  
     5     3     4 1   
     6     3     5 ar  
     7     4    21 1   
     8     4    22 1   
     9     4    23 1   
    10     5     8 ar  
    11     5    24 1   
    12     6     7 ar  
    13     6    25 1   
    14     7     8 ar  
    15     7    26 1   
    16     8     9 1   
    17     9    10 ar  
    18     9    13 ar  
    19    10    11 ar  
    20    10    27 1   
    21    11    12 ar  
    22    11    28 1   
    23    12    19 ar  
    24    13    14 ar  
    25    13    19 ar  
    26    14    15 ar  
    27    14    29 1   
    28    15    16 ar  
    29    15    30 1   
    30    16    17 1   
    31    16    18 ar  
    32    17    31 1   
    33    18    19 ar  
    34    18    32 1   
@<TRIPOS>SUBSTRUCTURE
     1 7VF         1 TEMP              0 ****  ****    0 ROOT
