@<TRIPOS>MOLECULE
7VF
   32    34     1     0     0
SMALL
abcg2


@<TRIPOS>ATOM
      1 O1           4.9150     1.5110    -0.3700 oh         1 7VF      -0.536100
      2 C8           3.7100     0.9110    -0.2940 ca         1 7VF       0.152100
      3 C7           3.4550    -0.1540     0.5770 ca         1 7VF      -0.171300
      4 C11          4.5350    -0.6830     1.4750 c3         1 7VF      -0.051800
      5 C6           2.1810    -0.7060     0.5830 ca         1 7VF      -0.051000
      6 C10          2.7050     1.3910    -1.1270 ca         1 7VF      -0.149000
      7 C9           1.4450     0.8250    -1.0980 ca         1 7VF      -0.060000
      8 C5           1.1590    -0.2340    -0.2370 cp         1 7VF      -0.089000
      9 C2          -0.1640    -0.8850    -0.2270 cp         1 7VF       0.040000
     10 C3          -0.2620    -2.2460    -0.3850 ca         1 7VF      -0.178000
     11 C4          -1.5290    -2.8540    -0.4080 ca         1 7VF       0.362900
     12 N           -2.6580    -2.2080    -0.2970 nb         1 7VF      -0.666000
     13 C           -1.3740    -0.1540    -0.0630 ca         1 7VF      -0.106000
     14 C12         -1.4240     1.2340     0.1930 ca         1 7VF      -0.050000
     15 C13         -2.6170     1.8850     0.3340 ca         1 7VF      -0.192000
     16 C15         -3.8360     1.1790     0.2300 ca         1 7VF       0.145100
     17 O           -5.0230     1.8000     0.3520 oh         1 7VF      -0.529100
     18 C14         -3.8220    -0.1750     0.0140 ca         1 7VF      -0.137000
     19 C1          -2.6030    -0.8660    -0.1220 ca         1 7VF       0.304000
     20 H1           5.5480     1.1000     0.2240 ho         1 7VF       0.469000
     21 H2           4.9020     0.0710     2.1740 hc         1 7VF       0.043700
     22 H3           4.1670    -1.5130     2.0750 hc         1 7VF       0.043700
     23 H4           5.3910    -1.0620     0.9110 hc         1 7VF       0.043700
     24 H5           1.9800    -1.5240     1.2640 ha         1 7VF       0.116000
     25 H6           2.9180     2.2060    -1.8070 ha         1 7VF       0.131000
     26 H7           0.6870     1.1990    -1.7740 ha         1 7VF       0.122000
     27 H8           0.6200    -2.8550    -0.5250 ha         1 7VF       0.125000
     28 H9          -1.5940    -3.9290    -0.5410 h4         1 7VF       0.018100
     29 H10         -0.5050     1.7940     0.2960 ha         1 7VF       0.123000
     30 H11         -2.6220     2.9500     0.5350 ha         1 7VF       0.114000
     31 H12         -4.8990     2.7410     0.4970 ho         1 7VF       0.465000
     32 H13         -4.7470    -0.7340    -0.0500 ha         1 7VF       0.146000
@<TRIPOS>BOND
     1     1     2 1   
     2     1    20 1   
     3     2     3 ar  
     4     2     6 ar  
     5     3     4 1   
     6     3     5 ar  
     7     4    21 1   
     8     4    22 1   
     9     4    23 1   
    10     5     8 ar  
    11     5    24 1   
    12     6     7 ar  
    13     6    25 1   
    14     7     8 ar  
    15     7    26 1   
    16     8     9 1   
    17     9    10 ar  
    18     9    13 ar  
    19    10    11 ar  
    20    10    27 1   
    21    11    12 ar  
    22    11    28 1   
    23    12    19 ar  
    24    13    14 ar  
    25    13    19 ar  
    26    14    15 ar  
    27    14    29 1   
    28    15    16 ar  
    29    15    30 1   
    30    16    17 1   
    31    16    18 ar  
    32    17    31 1   
    33    18    19 ar  
    34    18    32 1   
@<TRIPOS>SUBSTRUCTURE
     1 7VF         1 TEMP              0 ****  ****    0 ROOT
