@<TRIPOS>MOLECULE
7VH
   81    86     1     0     0
SMALL
No Charge or Current Charge


@<TRIPOS>ATOM
      1 C14         -2.1100    50.1580   -13.1130 c6         1 7VH      -0.077400
      2 C11         -0.3560    51.0890   -16.3240 ca         1 7VH       0.301000
      3 C13         -0.9200    50.7620   -13.8900 c6         1 7VH       0.190300
      4 C02          1.3790    53.6730   -23.4370 ca         1 7VH      -0.055000
      5 C03          2.1990    54.5050   -22.6550 ca         1 7VH       0.160900
      6 C05          1.3770    53.5380   -20.7540 ca         1 7VH       0.387900
      7 C07          0.8180    52.6690   -18.3760 ca         1 7VH       0.254000
      8 C08         -0.4250    52.0360   -18.5800 ca         1 7VH      -0.056000
      9 C09         -1.0040    51.2480   -17.5730 ca         1 7VH       0.088000
     10 C15         -2.1250    48.5980   -13.1740 c6         1 7VH       0.187500
     11 C17         -3.3530    46.5050   -12.5290 c6         1 7VH       0.163800
     12 C18         -4.5630    45.8800   -11.7620 c6         1 7VH       0.160800
     13 C21         -4.6080    47.7950   -10.2560 c6         1 7VH       0.160800
     14 C22         -3.3980    48.4280   -11.0160 c6         1 7VH       0.163800
     15 C23         -2.0620    48.1700   -14.6740 c6         1 7VH      -0.077400
     16 C24         -0.8720    48.8180   -15.4150 c6         1 7VH       0.190300
     17 C25          0.8720    51.7380   -16.1050 ca         1 7VH      -0.222000
     18 C26          1.4600    52.5280   -17.1180 ca         1 7VH       0.124100
     19 C28          3.4030    53.0950   -15.6830 c3         1 7VH       0.151900
     20 C30          0.5390    52.7590   -22.7530 ca         1 7VH       0.279800
     21 C31         -0.3740    51.8290   -23.4330 cc         1 7VH      -0.201000
     22 C32         -1.2040    52.2420   -24.4690 cd         1 7VH      -0.081100
     23 C37         -4.8620    52.9030   -24.2360 c3         1 7VH      -0.068100
     24 C39         -1.8980    50.2150   -23.8190 ca         1 7VH      -0.037200
     25 C40         -2.5930    49.0070   -23.6240 ca         1 7VH      -0.127000
     26 C41         -2.1870    48.1520   -22.5780 ca         1 7VH      -0.085000
     27 C42         -1.1030    48.5080   -21.7440 ca         1 7VH      -0.129000
     28 C43         -0.4210    49.7230   -21.9500 ca         1 7VH      -0.047000
     29 C44         -0.8550    50.5540   -22.9950 ca         1 7VH      -0.050800
     30 N04          2.2010    54.4410   -21.3090 nb         1 7VH      -0.226000
     31 N06          1.4400    53.4590   -19.3680 nu         1 7VH      -0.917900
     32 N12         -0.9170    50.2940   -15.2960 nh         1 7VH      -0.770400
     33 N16         -3.3180    48.0090   -12.4600 n3         1 7VH      -0.719600
     34 N19         -4.6120    46.3050   -10.3330 n3         1 7VH      -0.718600
     35 N29          0.5640    52.6950   -21.4070 nb         1 7VH      -0.251000
     36 N33         -2.1410    51.2140   -24.7710 na         1 7VH      -0.215900
     37 O27          2.6720    53.1770   -16.9200 os         1 7VH      -0.358100
     38 S34         -3.3650    51.2710   -25.9950 s6         1 7VH       1.230200
     39 Cl2         -2.5700    50.4930   -17.9080 cl         1 7VH      -0.198000
     40 H1          -2.0330    50.5120   -12.0780 hc         1 7VH       0.057950
     41 H2          -3.0500    50.5550   -13.5170 hc         1 7VH       0.057950
     42 H3           0.0210    50.4780   -13.3950 h1         1 7VH       0.037700
     43 H4          -0.9950    51.8590   -13.8550 h1         1 7VH       0.037700
     44 H5           2.8760    55.2260   -23.1120 h4         1 7VH       0.037100
     45 H6          -0.9660    52.1580   -19.5090 ha         1 7VH       0.153000
     46 H7          -1.2060    48.2380   -12.6870 h1         1 7VH       0.016700
     47 H8          -3.4310    46.1600   -13.5680 h1         1 7VH       0.038200
     48 H9          -2.4230    46.0860   -12.1160 h1         1 7VH       0.038200
     49 H10         -5.4900    46.1740   -12.2760 h1         1 7VH       0.038200
     50 H11         -4.4920    44.7850   -11.8300 h1         1 7VH       0.038200
     51 H12         -5.7140    45.9970    -8.5370 h1         1 7VH       0.031367
     52 H13         -6.7020    46.0080   -10.0180 h1         1 7VH       0.031367
     53 H14         -5.6820    44.6010    -9.6350 h1         1 7VH       0.031367
     54 H15         -4.5700    48.1200    -9.2060 h1         1 7VH       0.038200
     55 H16         -5.5380    48.1980   -10.6830 h1         1 7VH       0.038200
     56 H17         -2.4720    48.1520   -10.4910 h1         1 7VH       0.038200
     57 H18         -3.5090    49.5170   -10.9280 h1         1 7VH       0.038200
     58 H19         -2.9980    48.4410   -15.1790 hc         1 7VH       0.057950
     59 H20         -1.9490    47.0850   -14.7710 hc         1 7VH       0.057950
     60 H21         -0.9030    48.5160   -16.4720 h1         1 7VH       0.037700
     61 H22          0.0710    48.4380   -14.9940 h1         1 7VH       0.037700
     62 H23          1.3630    51.6070   -15.1470 ha         1 7VH       0.123000
     63 H24          4.3260    53.6840   -15.7470 h1         1 7VH       0.045700
     64 H25          2.8070    53.4880   -14.8500 h1         1 7VH       0.045700
     65 H26          3.6790    52.0560   -15.4610 h1         1 7VH       0.045700
     66 H27         -1.2250    53.1950   -24.9940 h4         1 7VH       0.251000
     67 H28         -5.6920    51.5990   -25.7890 h1         1 7VH       0.104700
     68 H29         -5.0110    50.7230   -24.3890 h1         1 7VH       0.104700
     69 H30         -5.8160    53.0400   -23.7130 hc         1 7VH       0.055033
     70 H31         -4.0640    52.8920   -23.4820 hc         1 7VH       0.055033
     71 H32         -4.7080    53.7710   -24.8900 hc         1 7VH       0.055033
     72 H33         -3.4310    48.7220   -24.2550 ha         1 7VH       0.129000
     73 H34         -2.7110    47.2130   -22.4120 ha         1 7VH       0.116000
     74 H35         -0.7940    47.8420   -20.9410 ha         1 7VH       0.113000
     75 H36          0.4160    50.0010   -21.3160 ha         1 7VH       0.140000
     76 H37          2.2250    53.9930   -18.9890 hn         1 7VH       0.525000
     77 C20         -5.7380    45.6970    -9.5930 c3         1 7VH       0.152100
     78 Cl1          1.4860    53.7680   -25.1990 cl         1 7VH      -0.180000
     79 C36         -4.8810    51.5850   -25.0530 c3         1 7VH      -0.326400
     80 O35         -3.4930    49.9210   -26.5620 o          1 7VH      -0.522500
     81 O38         -3.0870    52.4360   -26.8490 o          1 7VH      -0.522500
@<TRIPOS>BOND
     1     1     3 1   
     2     1    10 1   
     3     1    40 1   
     4     1    41 1   
     5     2     9 ar  
     6     2    17 ar  
     7     2    32 1   
     8     3    32 1   
     9     3    42 1   
    10     3    43 1   
    11     4     5 ar  
    12     4    20 ar  
    13     4    78 1   
    14     5    30 ar  
    15     5    44 1   
    16     6    30 ar  
    17     6    31 1   
    18     6    35 ar  
    19     7     8 ar  
    20     7    18 ar  
    21     7    31 1   
    22     8     9 ar  
    23     8    45 1   
    24     9    39 1   
    25    10    15 1   
    26    10    33 1   
    27    10    46 1   
    28    11    12 1   
    29    11    33 1   
    30    11    47 1   
    31    11    48 1   
    32    12    34 1   
    33    12    49 1   
    34    12    50 1   
    35    13    14 1   
    36    13    34 1   
    37    13    54 1   
    38    13    55 1   
    39    14    33 1   
    40    14    56 1   
    41    14    57 1   
    42    15    16 1   
    43    15    58 1   
    44    15    59 1   
    45    16    32 1   
    46    16    60 1   
    47    16    61 1   
    48    17    18 ar  
    49    17    62 1   
    50    18    37 1   
    51    19    37 1   
    52    19    63 1   
    53    19    64 1   
    54    19    65 1   
    55    20    21 1   
    56    20    35 ar  
    57    21    22 2   
    58    21    29 1   
    59    22    36 1   
    60    22    66 1   
    61    23    69 1   
    62    23    70 1   
    63    23    71 1   
    64    23    79 1   
    65    24    25 ar  
    66    24    29 ar  
    67    24    36 1   
    68    25    26 ar  
    69    25    72 1   
    70    26    27 ar  
    71    26    73 1   
    72    27    28 ar  
    73    27    74 1   
    74    28    29 ar  
    75    28    75 1   
    76    31    76 1   
    77    34    77 1   
    78    36    38 1   
    79    38    79 1   
    80    38    80 2   
    81    38    81 2   
    82    51    77 1   
    83    52    77 1   
    84    53    77 1   
    85    67    79 1   
    86    68    79 1   
@<TRIPOS>SUBSTRUCTURE
     1 7VH         1 TEMP              0 ****  ****    0 ROOT
