@<TRIPOS>MOLECULE
7VH
   81    86     1     0     0
SMALL
abcg2


@<TRIPOS>ATOM
      1 C14         -1.7690    50.0060   -13.2370 c6         1 7VH      -0.077400
      2 C11         -0.6060    51.5700   -16.4300 ca         1 7VH       0.301000
      3 C13         -0.7460    50.6380   -14.1730 c6         1 7VH       0.190300
      4 C02          1.3440    53.5820   -23.2540 ca         1 7VH      -0.055000
      5 C03          2.1990    54.4760   -22.6210 ca         1 7VH       0.160900
      6 C05          1.4090    53.8390   -20.6010 ca         1 7VH       0.387900
      7 C07          0.7440    53.1980   -18.3140 ca         1 7VH       0.254000
      8 C08         -0.6050    52.9080   -18.4630 ca         1 7VH      -0.056000
      9 C09         -1.2640    52.1110   -17.5420 ca         1 7VH       0.088000
     10 C15         -2.2130    48.6190   -13.7140 c6         1 7VH       0.187500
     11 C17         -3.7280    46.7480   -13.3120 c6         1 7VH       0.163800
     12 C18         -4.8490    46.2140   -12.4380 c6         1 7VH       0.160800
     13 C21         -3.9890    47.4280   -10.5840 c6         1 7VH       0.160800
     14 C22         -2.8660    47.9660   -11.4540 c6         1 7VH       0.163800
     15 C23         -2.6650    48.7240   -15.1750 c6         1 7VH      -0.077400
     16 C24         -1.6220    49.4060   -16.0450 c6         1 7VH       0.190300
     17 C25          0.7430    51.9130   -16.2620 ca         1 7VH      -0.222000
     18 C26          1.4150    52.7130   -17.1790 ca         1 7VH       0.124100
     19 C28          3.4530    52.6410   -15.9210 c3         1 7VH       0.151900
     20 C30          0.5010    52.7990   -22.4490 ca         1 7VH       0.279800
     21 C31         -0.4530    51.7960   -22.9100 cc         1 7VH      -0.201000
     22 C32         -1.0810    51.7380   -24.1240 cd         1 7VH      -0.081100
     23 C37         -4.5990    52.3840   -24.2720 c3         1 7VH      -0.068100
     24 C39         -1.9030    49.9970   -22.9100 ca         1 7VH      -0.037200
     25 C40         -2.5910    48.8740   -22.4660 ca         1 7VH      -0.127000
     26 C41         -2.3350    48.4450   -21.1710 ca         1 7VH      -0.085000
     27 C42         -1.4120    49.1140   -20.3560 ca         1 7VH      -0.129000
     28 C43         -0.7260    50.2300   -20.8110 ca         1 7VH      -0.047000
     29 C44         -0.9740    50.6940   -22.1080 ca         1 7VH      -0.050800
     30 N04          2.2470    54.6260   -21.3040 nb         1 7VH      -0.226000
     31 N06          1.4530    53.9790   -19.2420 nu         1 7VH      -0.917900
     32 N12         -1.2860    50.7370   -15.5240 nh         1 7VH      -0.770400
     33 N16         -3.2750    48.0650   -12.8570 n3         1 7VH      -0.719600
     34 N19         -4.4320    46.1190   -11.0460 n3         1 7VH      -0.718600
     35 N29          0.5640    52.9540   -21.1220 nb         1 7VH      -0.251000
     36 N33         -1.9510    50.6580   -24.1500 na         1 7VH      -0.215900
     37 O27          2.7240    53.0610   -17.0750 os         1 7VH      -0.358100
     38 S34         -3.0570    50.3850   -25.3930 s6         1 7VH       1.230200
     39 CL2         -2.9790    51.8380   -17.7890 cl         1 7VH      -0.198000
     40 H1          -1.3160    49.9540   -12.2480 hc         1 7VH       0.057950
     41 H2          -2.6480    50.6530   -13.1660 hc         1 7VH       0.057950
     42 H3           0.1800    50.0410   -14.1530 h1         1 7VH       0.037700
     43 H4          -0.4980    51.6390   -13.8210 h1         1 7VH       0.037700
     44 H5           2.8700    55.0880   -23.2140 h4         1 7VH       0.037100
     45 H6          -1.1450    53.3050   -19.3060 ha         1 7VH       0.153000
     46 H7          -1.3300    47.9530   -13.6810 h1         1 7VH       0.016700
     47 H8          -4.1020    46.8190   -14.3300 h1         1 7VH       0.038200
     48 H9          -2.8920    46.0250   -13.3110 h1         1 7VH       0.038200
     49 H10         -5.7300    46.8720   -12.5410 h1         1 7VH       0.038200
     50 H11         -5.1370    45.2210   -12.7910 h1         1 7VH       0.038200
     51 H12         -5.1300    45.4920    -9.1760 h1         1 7VH       0.031367
     52 H13         -6.3880    46.2190   -10.2000 h1         1 7VH       0.031367
     53 H14         -5.7740    44.5900   -10.5590 h1         1 7VH       0.031367
     54 H15         -3.6350    47.3400    -9.5550 h1         1 7VH       0.038200
     55 H16         -4.8260    48.1500   -10.5880 h1         1 7VH       0.038200
     56 H17         -1.9810    47.3140   -11.3490 h1         1 7VH       0.038200
     57 H18         -2.5970    48.9510   -11.0790 h1         1 7VH       0.038200
     58 H19         -3.6000    49.2900   -15.2170 hc         1 7VH       0.057950
     59 H20         -2.8540    47.7390   -15.5990 hc         1 7VH       0.057950
     60 H21         -1.9980    49.5010   -17.0600 h1         1 7VH       0.037700
     61 H22         -0.7100    48.7890   -16.0910 h1         1 7VH       0.037700
     62 H23          1.2780    51.5110   -15.4170 ha         1 7VH       0.123000
     63 H24          4.4500    53.0580   -16.0330 h1         1 7VH       0.045700
     64 H25          2.9910    53.0240   -15.0080 h1         1 7VH       0.045700
     65 H26          3.5130    51.5510   -15.8730 h1         1 7VH       0.045700
     66 H27         -1.0150    52.3820   -24.9790 h4         1 7VH       0.251000
     67 H28         -5.3220    50.7310   -25.5090 h1         1 7VH       0.104700
     68 H29         -4.8220    50.2440   -23.8820 h1         1 7VH       0.104700
     69 H30         -5.5950    52.6450   -23.9150 hc         1 7VH       0.055033
     70 H31         -3.8930    52.5520   -23.4590 hc         1 7VH       0.055033
     71 H32         -4.3480    53.0420   -25.1030 hc         1 7VH       0.055033
     72 H33         -3.2900    48.3490   -23.1000 ha         1 7VH       0.129000
     73 H34         -2.8570    47.5780   -20.7890 ha         1 7VH       0.116000
     74 H35         -1.2340    48.7570   -19.3500 ha         1 7VH       0.113000
     75 H36         -0.0290    50.7490   -20.1740 ha         1 7VH       0.140000
     76 H37          2.2440    54.4970   -18.8910 hn         1 7VH       0.525000
     77 C20         -5.4870    45.5810   -10.2040 c3         1 7VH       0.152100
     78 CL1          1.4110    53.4760   -24.9920 cl         1 7VH      -0.180000
     79 C36         -4.6090    50.9270   -24.7050 c3         1 7VH      -0.326400
     80 O35         -3.1080    48.9650   -25.6130 o          1 7VH      -0.522500
     81 O38         -2.6500    51.2630   -26.4580 o          1 7VH      -0.522500
@<TRIPOS>BOND
     1     1     3 1   
     2     1    10 1   
     3     1    40 1   
     4     1    41 1   
     5     2     9 ar  
     6     2    17 ar  
     7     2    32 1   
     8     3    32 1   
     9     3    42 1   
    10     3    43 1   
    11     4     5 ar  
    12     4    20 ar  
    13     4    78 1   
    14     5    30 ar  
    15     5    44 1   
    16     6    30 ar  
    17     6    31 1   
    18     6    35 ar  
    19     7     8 ar  
    20     7    18 ar  
    21     7    31 1   
    22     8     9 ar  
    23     8    45 1   
    24     9    39 1   
    25    10    15 1   
    26    10    33 1   
    27    10    46 1   
    28    11    12 1   
    29    11    33 1   
    30    11    47 1   
    31    11    48 1   
    32    12    34 1   
    33    12    49 1   
    34    12    50 1   
    35    13    14 1   
    36    13    34 1   
    37    13    54 1   
    38    13    55 1   
    39    14    33 1   
    40    14    56 1   
    41    14    57 1   
    42    15    16 1   
    43    15    58 1   
    44    15    59 1   
    45    16    32 1   
    46    16    60 1   
    47    16    61 1   
    48    17    18 ar  
    49    17    62 1   
    50    18    37 1   
    51    19    37 1   
    52    19    63 1   
    53    19    64 1   
    54    19    65 1   
    55    20    21 1   
    56    20    35 ar  
    57    21    22 2   
    58    21    29 1   
    59    22    36 1   
    60    22    66 1   
    61    23    69 1   
    62    23    70 1   
    63    23    71 1   
    64    23    79 1   
    65    24    25 ar  
    66    24    29 ar  
    67    24    36 1   
    68    25    26 ar  
    69    25    72 1   
    70    26    27 ar  
    71    26    73 1   
    72    27    28 ar  
    73    27    74 1   
    74    28    29 ar  
    75    28    75 1   
    76    31    76 1   
    77    34    77 1   
    78    36    38 1   
    79    38    79 1   
    80    38    80 2   
    81    38    81 2   
    82    51    77 1   
    83    52    77 1   
    84    53    77 1   
    85    67    79 1   
    86    68    79 1   
@<TRIPOS>SUBSTRUCTURE
     1 7VH         1 TEMP              0 ****  ****    0 ROOT
