@<TRIPOS>MOLECULE
7VI
   74    76     1     0     0
SMALL
No Charge or Current Charge


@<TRIPOS>ATOM
      1 N            6.4810     0.9550    28.3700 ns         1 7VI      -0.487900
      2 C            4.1620     0.9440    33.7720 ca         1 7VI      -0.114500
      3 O            4.7600    -0.1190    29.2600 os         1 7VI      -0.453100
      4 C1           5.0550    -0.0270    34.2560 ca         1 7VI      -0.101000
      5 C10          8.6580     2.0190    29.0210 c3         1 7VI      -0.068700
      6 C11          8.2380     2.1040    30.5120 c3         1 7VI      -0.092600
      7 C12          9.7010     3.1190    28.7010 c3         1 7VI      -0.092600
      8 C13          8.5410     3.1980    24.4790 c3         1 7VI       0.038700
      9 C14          9.6360     4.2950    24.3460 c          1 7VI       0.585100
     10 C15          7.3320     3.5030    23.5540 c3         1 7VI      -0.054400
     11 C16          6.2750     2.4000    23.5270 cx         1 7VI      -0.128700
     12 C17         11.4420     5.1910    22.8280 c3         1 7VI       0.104700
     13 C18         10.8780     6.4620    22.1340 c3         1 7VI       0.149600
     14 C19         12.5310     4.4650    21.9950 c3         1 7VI      -0.070400
     15 C2           5.4860    -1.0640    33.4130 ca         1 7VI      -0.114500
     16 C20         13.1180     3.1820    22.6530 c5         1 7VI      -0.155700
     17 C21         13.7750     3.3950    24.0460 c5         1 7VI      -0.095400
     18 C22         14.6820     2.1400    24.1530 c5         1 7VI       0.100000
     19 C23         14.2500     2.5350    21.8440 c          1 7VI       0.565000
     20 C24          6.4640     1.1640    22.6810 cx         1 7VI      -0.130400
     21 C25          5.4100     2.1820    22.3080 cx         1 7VI      -0.130400
     22 C3           5.0240    -1.1320    32.0870 ca         1 7VI      -0.085500
     23 C4           4.1290    -0.1610    31.5940 ca         1 7VI      -0.124300
     24 C5           3.7000     0.8780    32.4460 ca         1 7VI      -0.085500
     25 C6           3.6350    -0.2350    30.1500 c3         1 7VI       0.230900
     26 C7           5.3610     1.0970    29.1370 c          1 7VI       0.640100
     27 C8           7.4350     2.0360    28.0420 c3         1 7VI       0.058700
     28 C9           7.8610     1.8910    26.5500 c          1 7VI       0.580100
     29 N1           8.1200     3.0770    25.8940 ns         1 7VI      -0.477900
     30 N2          10.3540     4.2630    23.1690 ns         1 7VI      -0.500900
     31 N3          15.1110     2.0010    22.7640 ns         1 7VI      -0.516900
     32 O1           4.9700     2.1480    29.6220 o          1 7VI      -0.542000
     33 O2           7.9490     0.8060    25.9870 o          1 7VI      -0.612100
     34 O3           9.8610     5.1250    25.2180 o          1 7VI      -0.610100
     35 O4          14.5170     2.6360    20.6570 o          1 7VI      -0.557000
     36 O5          11.9080     7.4400    21.9240 oh         1 7VI      -0.656000
     37 H1           6.6550     0.0250    28.0090 hn         1 7VI       0.337500
     38 H3           5.4130     0.0260    35.2820 ha         1 7VI       0.112000
     39 H4           9.1650     1.0540    28.8900 hc         1 7VI       0.065700
     40 H5           9.1200     2.1190    31.1630 hc         1 7VI       0.040700
     41 H6           7.6570     3.0140    30.7020 hc         1 7VI       0.040700
     42 H7           7.6330     1.2390    30.8070 hc         1 7VI       0.040700
     43 H8          10.5180     3.1030    29.4340 hc         1 7VI       0.040700
     44 H9          10.1530     2.9680    27.7140 hc         1 7VI       0.040700
     45 H10          9.2420     4.1150    28.7270 hc         1 7VI       0.040700
     46 H11          9.0020     2.2550    24.1590 h1         1 7VI       0.080700
     47 H12          7.6990     3.6770    22.5350 hc         1 7VI       0.058700
     48 H13          6.8670     4.4440    23.8730 hc         1 7VI       0.058700
     49 H14          5.7880     2.2630    24.4910 hc         1 7VI       0.095700
     50 H15         11.9110     5.5200    23.7650 h1         1 7VI       0.092700
     51 H16         10.0850     6.8870    22.7630 h1         1 7VI       0.022700
     52 H17         10.4240     6.1760    21.1760 h1         1 7VI       0.022700
     53 H18         12.1100     4.2100    21.0150 hc         1 7VI       0.066700
     54 H19         13.3480     5.1700    21.7980 hc         1 7VI       0.066700
     55 H20          6.1780    -1.8160    33.7860 ha         1 7VI       0.113000
     56 H21         12.3340     2.4240    22.7570 hc         1 7VI       0.087700
     57 H22         14.3790     4.3110    24.0660 hc         1 7VI       0.064200
     58 H23         13.0470     3.4620    24.8630 hc         1 7VI       0.064200
     59 H24         14.1140     1.2600    24.4840 h1         1 7VI       0.041200
     60 H25         15.5200     2.2940    24.8460 h1         1 7VI       0.041200
     61 H26          6.1310     0.2150    23.0940 hc         1 7VI       0.070950
     62 H27          7.3510     1.1010    22.0560 hc         1 7VI       0.070950
     63 H28          5.5910     2.8000    21.4320 hc         1 7VI       0.070950
     64 H29          4.3680     1.9150    22.4680 hc         1 7VI       0.070950
     65 H30          5.3650    -1.9370    31.4390 ha         1 7VI       0.116000
     66 H31          3.0120     1.6370    32.0790 ha         1 7VI       0.116000
     67 H32          2.8910     0.5480    29.9530 h1         1 7VI       0.067200
     68 H33          3.1380    -1.2030    30.0010 h1         1 7VI       0.067200
     69 H34          6.9170     3.0000    28.1380 h1         1 7VI       0.077700
     70 H35          8.0580     3.9280    26.4420 hn         1 7VI       0.331500
     71 H36         10.1060     3.5460    22.4980 hn         1 7VI       0.319500
     72 H37         15.9810     1.5910    22.4440 hn         1 7VI       0.325500
     73 H38         11.4850     8.2150    21.4920 ho         1 7VI       0.448000
     74 H2           3.8290     1.7490    34.4230 ha         1 7VI       0.113000
@<TRIPOS>BOND
     1     1    26 1   
     2     1    27 1   
     3     1    37 1   
     4     2     4 ar  
     5     2    24 ar  
     6     2    74 1   
     7     3    25 1   
     8     3    26 1   
     9     4    15 ar  
    10     4    38 1   
    11     5     6 1   
    12     5     7 1   
    13     5    27 1   
    14     5    39 1   
    15     6    40 1   
    16     6    41 1   
    17     6    42 1   
    18     7    43 1   
    19     7    44 1   
    20     7    45 1   
    21     8     9 1   
    22     8    10 1   
    23     8    29 1   
    24     8    46 1   
    25     9    30 1   
    26     9    34 2   
    27    10    11 1   
    28    10    47 1   
    29    10    48 1   
    30    11    20 1   
    31    11    21 1   
    32    11    49 1   
    33    12    13 1   
    34    12    14 1   
    35    12    30 1   
    36    12    50 1   
    37    13    36 1   
    38    13    51 1   
    39    13    52 1   
    40    14    16 1   
    41    14    53 1   
    42    14    54 1   
    43    15    22 ar  
    44    15    55 1   
    45    16    17 1   
    46    16    19 1   
    47    16    56 1   
    48    17    18 1   
    49    17    57 1   
    50    17    58 1   
    51    18    31 1   
    52    18    59 1   
    53    18    60 1   
    54    19    31 1   
    55    19    35 2   
    56    20    21 1   
    57    20    61 1   
    58    20    62 1   
    59    21    63 1   
    60    21    64 1   
    61    22    23 ar  
    62    22    65 1   
    63    23    24 ar  
    64    23    25 1   
    65    24    66 1   
    66    25    67 1   
    67    25    68 1   
    68    26    32 2   
    69    27    28 1   
    70    27    69 1   
    71    28    29 1   
    72    28    33 2   
    73    29    70 1   
    74    30    71 1   
    75    31    72 1   
    76    36    73 1   
@<TRIPOS>SUBSTRUCTURE
     1 7VI         1 TEMP              0 ****  ****    0 ROOT
