@<TRIPOS>MOLECULE
7VI
   74    76     1     0     0
SMALL
abcg2


@<TRIPOS>ATOM
      1 N            8.2180     0.6440    28.3760 ns         1 7VI      -0.487900
      2 C            2.8930     0.3640    31.3330 ca         1 7VI      -0.114500
      3 O            6.5640    -0.8140    28.5500 os         1 7VI      -0.453100
      4 C1           3.5890     0.0850    32.5010 ca         1 7VI      -0.101000
      5 C10         10.2790     1.9520    28.5370 c3         1 7VI      -0.068700
      6 C11         10.3850     1.7050    30.0390 c3         1 7VI      -0.092600
      7 C12         10.9290     3.2830    28.1720 c3         1 7VI      -0.092600
      8 C13          7.9740     3.7580    24.8550 c3         1 7VI       0.038700
      9 C14          9.2620     4.4160    24.3610 c          1 7VI       0.585100
     10 C15          6.8060     4.7360    24.7240 c3         1 7VI      -0.054400
     11 C16          5.4830     4.0950    25.0550 cx         1 7VI      -0.128700
     12 C17         10.9500     4.3830    22.5550 c3         1 7VI       0.104700
     13 C18         10.5580     4.9030    21.1740 c3         1 7VI       0.149600
     14 C19         12.0050     3.2810    22.4900 c3         1 7VI      -0.070400
     15 C2           4.8090    -0.5770    32.4330 ca         1 7VI      -0.114500
     16 C20         12.4280     2.7680    23.8570 c5         1 7VI      -0.155700
     17 C21         13.1250     3.7790    24.7650 c5         1 7VI      -0.095400
     18 C22         14.0240     2.9120    25.6480 c5         1 7VI       0.100000
     19 C23         13.4370     1.6320    23.7700 c          1 7VI       0.565000
     20 C24          4.7920     3.2620    24.0200 cx         1 7VI      -0.130400
     21 C25          4.2360     4.6030    24.4010 cx         1 7VI      -0.130400
     22 C3           5.3260    -0.9620    31.2050 ca         1 7VI      -0.085500
     23 C4           4.6350    -0.6810    30.0280 ca         1 7VI      -0.124300
     24 C5           3.4180    -0.0120    30.1040 ca         1 7VI      -0.085500
     25 C6           5.1800    -1.1230    28.6990 c3         1 7VI       0.230900
     26 C7           6.8820     0.4730    28.3610 c          1 7VI       0.640100
     27 C8           8.8140     1.9250    28.0810 c3         1 7VI       0.058700
     28 C9           8.7150     2.1930    26.5790 c          1 7VI       0.580100
     29 N1           8.1280     3.3460    26.2310 ns         1 7VI      -0.477900
     30 N2           9.7520     3.9110    23.2190 ns         1 7VI      -0.500900
     31 N3          14.3050     1.7850    24.7840 ns         1 7VI      -0.516900
     32 O1           6.0710     1.3610    28.2030 o          1 7VI      -0.542000
     33 O2           9.1470     1.3880    25.7670 o          1 7VI      -0.612100
     34 O3           9.7620     5.3460    24.9760 o          1 7VI      -0.610100
     35 O4          13.4480     0.7380    22.9400 o          1 7VI      -0.557000
     36 O5          11.6920     5.4590    20.5560 oh         1 7VI      -0.656000
     37 H1           8.8130    -0.1700    28.4030 hn         1 7VI       0.337500
     38 H3           3.1840     0.3820    33.4600 ha         1 7VI       0.112000
     39 H4          10.8110     1.1520    28.0100 hc         1 7VI       0.065700
     40 H5          11.4280     1.7380    30.3550 hc         1 7VI       0.040700
     41 H6           9.8440     2.4730    30.5970 hc         1 7VI       0.040700
     42 H7           9.9860     0.7350    30.3310 hc         1 7VI       0.040700
     43 H8          11.9530     3.3170    28.5440 hc         1 7VI       0.040700
     44 H9          10.9720     3.4490    27.0950 hc         1 7VI       0.040700
     45 H10         10.3870     4.1200    28.6170 hc         1 7VI       0.040700
     46 H11          7.7450     2.8720    24.2590 h1         1 7VI       0.080700
     47 H12          6.7840     5.1070    23.6950 hc         1 7VI       0.058700
     48 H13          6.9840     5.6050    25.3630 hc         1 7VI       0.058700
     49 H14          5.3760     3.7600    26.0820 hc         1 7VI       0.095700
     50 H15         11.3280     5.2210    23.1430 h1         1 7VI       0.092700
     51 H16          9.7580     5.6440    21.3010 h1         1 7VI       0.022700
     52 H17         10.1400     4.0730    20.5870 h1         1 7VI       0.022700
     53 H18         11.6170     2.4490    21.8920 hc         1 7VI       0.066700
     54 H19         12.8810     3.6620    21.9600 hc         1 7VI       0.066700
     55 H20          5.3560    -0.7990    33.3400 ha         1 7VI       0.113000
     56 H21         11.5540     2.3560    24.3800 hc         1 7VI       0.087700
     57 H22         13.7380     4.4570    24.1650 hc         1 7VI       0.064200
     58 H23         12.4350     4.3850    25.3490 hc         1 7VI       0.064200
     59 H24         13.5050     2.5940    26.5580 h1         1 7VI       0.041200
     60 H25         14.9410     3.4190    25.9460 h1         1 7VI       0.041200
     61 H26          4.2590     2.3760    24.3410 hc         1 7VI       0.070950
     62 H27          5.2650     3.1680    23.0500 hc         1 7VI       0.070950
     63 H28          4.3350     5.4110    23.6860 hc         1 7VI       0.070950
     64 H29          3.3250     4.6350    24.9840 hc         1 7VI       0.070950
     65 H30          6.2740    -1.4850    31.1670 ha         1 7VI       0.116000
     66 H31          2.8770     0.2180    29.1940 ha         1 7VI       0.116000
     67 H32          4.5950    -0.7030    27.8790 h1         1 7VI       0.067200
     68 H33          5.1360    -2.2090    28.6120 h1         1 7VI       0.067200
     69 H34          8.2760     2.6960    28.6400 h1         1 7VI       0.077700
     70 H35          7.8290     3.9810    26.9550 hn         1 7VI       0.331500
     71 H36          9.2890     3.1080    22.8200 hn         1 7VI       0.319500
     72 H37         15.0020     1.0900    25.0020 hn         1 7VI       0.325500
     73 H38         11.4480     5.7330    19.6670 ho         1 7VI       0.448000
     74 H2           1.9440     0.8830    31.3770 ha         1 7VI       0.113000
@<TRIPOS>BOND
     1     1    26 1   
     2     1    27 1   
     3     1    37 1   
     4     2     4 ar  
     5     2    24 ar  
     6     2    74 1   
     7     3    25 1   
     8     3    26 1   
     9     4    15 ar  
    10     4    38 1   
    11     5     6 1   
    12     5     7 1   
    13     5    27 1   
    14     5    39 1   
    15     6    40 1   
    16     6    41 1   
    17     6    42 1   
    18     7    43 1   
    19     7    44 1   
    20     7    45 1   
    21     8     9 1   
    22     8    10 1   
    23     8    29 1   
    24     8    46 1   
    25     9    30 1   
    26     9    34 2   
    27    10    11 1   
    28    10    47 1   
    29    10    48 1   
    30    11    20 1   
    31    11    21 1   
    32    11    49 1   
    33    12    13 1   
    34    12    14 1   
    35    12    30 1   
    36    12    50 1   
    37    13    36 1   
    38    13    51 1   
    39    13    52 1   
    40    14    16 1   
    41    14    53 1   
    42    14    54 1   
    43    15    22 ar  
    44    15    55 1   
    45    16    17 1   
    46    16    19 1   
    47    16    56 1   
    48    17    18 1   
    49    17    57 1   
    50    17    58 1   
    51    18    31 1   
    52    18    59 1   
    53    18    60 1   
    54    19    31 1   
    55    19    35 2   
    56    20    21 1   
    57    20    61 1   
    58    20    62 1   
    59    21    63 1   
    60    21    64 1   
    61    22    23 ar  
    62    22    65 1   
    63    23    24 ar  
    64    23    25 1   
    65    24    66 1   
    66    25    67 1   
    67    25    68 1   
    68    26    32 2   
    69    27    28 1   
    70    27    69 1   
    71    28    29 1   
    72    28    33 2   
    73    29    70 1   
    74    30    71 1   
    75    31    72 1   
    76    36    73 1   
@<TRIPOS>SUBSTRUCTURE
     1 7VI         1 TEMP              0 ****  ****    0 ROOT
