@<TRIPOS>MOLECULE
7VJ
   19    19     1     0     0
SMALL
abcg2


@<TRIPOS>ATOM
      1 N3          -1.6120    -1.5010    -0.0040 ne         1 7VJ      -0.016300
      2 O2          -2.8270    -1.3390    -0.0060 o          1 7VJ      -0.247300
      3 C2          -0.7830    -0.4340    -0.0070 cc         1 7VJ      -0.344600
      4 C1           0.6210    -0.7430     0.0030 cd         1 7VJ       0.536600
      5 N2           1.0220    -2.0030     0.0040 nu         1 7VJ      -0.770200
      6 C5           2.4060    -2.4120     0.0130 c3         1 7VJ       0.216100
      7 N1           1.5690     0.1960     0.0150 nd         1 7VJ      -0.803300
      8 C4           1.1900     1.4580     0.0160 cc         1 7VJ       0.798800
      9 N5           2.1150     2.4040     0.0390 nv         1 7VJ      -1.047200
     10 N4          -0.1070     1.8400    -0.0070 ns         1 7VJ      -0.459400
     11 C3          -1.1840     0.9510    -0.0190 c          1 7VJ       0.605200
     12 O1          -2.3140     1.3970    -0.0380 o          1 7VJ      -0.501000
     13 H1           0.3000    -2.7070    -0.0050 hn         1 7VJ       0.533000
     14 H2           2.4340    -3.4980     0.0030 h1         1 7VJ       0.048367
     15 H3           2.9400    -2.0410    -0.8620 h1         1 7VJ       0.048367
     16 H4           2.9240    -2.0590     0.9050 h1         1 7VJ       0.048367
     17 H5           3.0860     2.1410     0.0520 hn         1 7VJ       0.515000
     18 H6           1.8890     3.3840     0.0420 hn         1 7VJ       0.515000
     19 H7          -0.3380     2.8260    -0.0030 hn         1 7VJ       0.323500
@<TRIPOS>BOND
     1     1     2 2   
     2     1     3 1   
     3     3     4 2   
     4     3    11 1   
     5     4     5 1   
     6     4     7 1   
     7     5     6 1   
     8     5    13 1   
     9     6    14 1   
    10     6    15 1   
    11     6    16 1   
    12     7     8 2   
    13     8     9 1   
    14     8    10 1   
    15     9    17 1   
    16     9    18 1   
    17    10    11 1   
    18    10    19 1   
    19    11    12 2   
@<TRIPOS>SUBSTRUCTURE
     1 7VJ         1 TEMP              0 ****  ****    0 ROOT
