@<TRIPOS>MOLECULE
7VJ
   19    19     1     0     0
SMALL
No Charge or Current Charge


@<TRIPOS>ATOM
      1 N3          -1.7280    -1.3620     0.2690 ne         1 7VJ      -0.016300
      2 O2          -2.5820    -1.4470    -0.6230 o          1 7VJ      -0.247300
      3 C2          -0.7550    -0.3810     0.1430 cc         1 7VJ      -0.344600
      4 C1           0.5850    -0.7030     0.0630 cd         1 7VJ       0.536600
      5 N2           1.0370    -1.9810     0.0910 nu         1 7VJ      -0.770200
      6 C5           2.4310    -2.4470    -0.0110 c3         1 7VJ       0.216100
      7 N1           1.5760     0.2480    -0.0580 nd         1 7VJ      -0.803300
      8 C4           1.1310     1.4630    -0.0850 cc         1 7VJ       0.798800
      9 N5           2.0460     2.3980    -0.1930 nv         1 7VJ      -1.047200
     10 N4          -0.1300     1.8720    -0.0040 ns         1 7VJ      -0.459400
     11 C3          -1.1630     1.0280     0.1160 c          1 7VJ       0.605200
     12 O1          -2.3100     1.4390     0.1990 o          1 7VJ      -0.501000
     13 H1           0.2970    -2.6790     0.1520 hn         1 7VJ       0.533000
     14 H2           2.4750    -3.5430     0.0360 h1         1 7VJ       0.048367
     15 H3           2.8770    -2.1250    -0.9610 h1         1 7VJ       0.048367
     16 H4           3.0340    -2.0420     0.8130 h1         1 7VJ       0.048367
     17 H5           2.9750     2.0170    -0.0730 hn         1 7VJ       0.515000
     18 H6           1.8750     3.2500     0.3240 hn         1 7VJ       0.515000
     19 H7          -0.3400     2.8530    -0.0590 hn         1 7VJ       0.323500
@<TRIPOS>BOND
     1     1     2 2   
     2     1     3 1   
     3     3     4 2   
     4     3    11 1   
     5     4     5 1   
     6     4     7 1   
     7     5     6 1   
     8     5    13 1   
     9     6    14 1   
    10     6    15 1   
    11     6    16 1   
    12     7     8 2   
    13     8     9 1   
    14     8    10 1   
    15     9    17 1   
    16     9    18 1   
    17    10    11 1   
    18    10    19 1   
    19    11    12 2   
@<TRIPOS>SUBSTRUCTURE
     1 7VJ         1 TEMP              0 ****  ****    0 ROOT
