@<TRIPOS>MOLECULE
7VK
   55    58     1     0     0
SMALL
abcg2


@<TRIPOS>ATOM
      1 O1          40.7780    13.8010     0.7770 o          1 7VK      -0.712750
      2 C7          41.3610    12.5540    -2.7020 c          1 7VK       0.615700
      3 O2          41.9320    12.6460    -3.7920 o          1 7VK      -0.647600
      4 C3          43.6670    17.0210    -1.3720 ca         1 7VK      -0.179000
      5 C4          43.7200    16.2880    -2.5520 ca         1 7VK      -0.107000
      6 C5          43.0100    15.1020    -2.6790 ca         1 7VK      -0.175000
      7 C6          42.2310    14.6260    -1.6150 ca         1 7VK       0.004000
      8 C1          42.1630    15.3670    -0.4080 ca         1 7VK      -0.190100
      9 C2          42.8890    16.5540    -0.3220 ca         1 7VK      -0.067000
     10 O3          37.9710     8.1020    -1.8720 os         1 7VK      -0.268200
     11 C8          40.4470    11.4030    -2.4160 ca         1 7VK      -0.160100
     12 O4          36.4090     6.7760     4.1450 o          1 7VK      -0.647600
     13 C9          40.5830    10.2490    -3.1900 ca         1 7VK      -0.045250
     14 C           41.3350    14.9430     0.8060 c          1 7VK       0.717600
     15 O           41.2600    15.7470     1.7580 o          1 7VK      -0.712750
     16 C10         39.7720     9.1470    -2.9760 ca         1 7VK      -0.160750
     17 C11         38.7930     9.2000    -1.9900 ca         1 7VK       0.128100
     18 C12         37.4850     7.7230    -0.6400 ca         1 7VK       0.128100
     19 C13         38.2710     7.7520     0.5090 ca         1 7VK      -0.160750
     20 C14         37.7340     7.3040     1.7050 ca         1 7VK      -0.045250
     21 C15         36.4330     6.8010     1.7690 ca         1 7VK      -0.160100
     22 C16         35.9140     6.3490     3.0990 c          1 7VK       0.615700
     23 C17         34.1650     4.8610     4.0670 ca         1 7VK       0.004000
     24 C18         34.2460     5.2920     5.3980 ca         1 7VK      -0.175000
     25 C19         33.4780     4.6850     6.3800 ca         1 7VK      -0.107000
     26 C20         32.6180     3.6400     6.0590 ca         1 7VK      -0.179000
     27 C21         32.5400     3.2110     4.7420 ca         1 7VK      -0.067000
     28 C22         33.2940     3.7960     3.7250 ca         1 7VK      -0.190100
     29 C23         33.1340     3.2510     2.3060 c          1 7VK       0.717600
     30 C24         35.6670     6.7690     0.6010 ca         1 7VK      -0.045250
     31 C25         36.1850     7.2330    -0.5990 ca         1 7VK      -0.160750
     32 C26         38.6190    10.3490    -1.2250 ca         1 7VK      -0.160750
     33 C27         39.4500    11.4390    -1.4360 ca         1 7VK      -0.045250
     34 N1          34.8980     5.4540     3.0350 ns         1 7VK      -0.157000
     35 O5          33.7110     3.8750     1.3610 o          1 7VK      -0.712750
     36 O6          32.4410     2.2220     2.1580 o          1 7VK      -0.712750
     37 H1          44.2230    17.9450    -1.2710 ha         1 7VK       0.085000
     38 H2          44.3180    16.6360    -3.3850 ha         1 7VK       0.084000
     39 H3          43.0520    14.5330    -3.5910 ha         1 7VK       0.132500
     40 H           42.8270    17.1090     0.6030 ha         1 7VK       0.126000
     41 H5          41.3460    10.2200    -3.9560 ha         1 7VK       0.140250
     42 H4          41.0500    13.2550    -0.7690 hn         1 7VK       0.230500
     43 H6          39.8860     8.2450    -3.5630 ha         1 7VK       0.126250
     44 H7          39.2860     8.1220     0.4670 ha         1 7VK       0.126250
     45 H8          38.3330     7.3280     2.6050 ha         1 7VK       0.140250
     46 H10         34.9140     6.0990     5.6460 ha         1 7VK       0.132500
     47 H11         33.5530     5.0360     7.4020 ha         1 7VK       0.084000
     48 H12         32.0170     3.1660     6.8250 ha         1 7VK       0.085000
     49 H13         31.8810     2.3980     4.4700 ha         1 7VK       0.126000
     50 H14         34.6490     6.4050     0.6190 ha         1 7VK       0.140250
     51 H15         35.5910     7.2270    -1.5020 ha         1 7VK       0.126250
     52 H16         37.8400    10.3950    -0.4760 ha         1 7VK       0.126250
     53 H17         39.2940    12.3270    -0.8380 ha         1 7VK       0.140250
     54 H9          34.6310     5.0320     2.1290 hn         1 7VK       0.230500
     55 N           41.4990    13.4370    -1.6830 ns         1 7VK      -0.157000
@<TRIPOS>BOND
     1     1    14 1   
     2     2     3 2   
     3     2    11 1   
     4     2    55 1   
     5     4     5 ar  
     6     4     9 ar  
     7     4    37 1   
     8     5     6 ar  
     9     5    38 1   
    10     6     7 ar  
    11     6    39 1   
    12     7     8 ar  
    13     7    55 1   
    14     8     9 ar  
    15     8    14 1   
    16     9    40 1   
    17    10    17 1   
    18    10    18 1   
    19    11    13 ar  
    20    11    33 ar  
    21    12    22 2   
    22    13    16 ar  
    23    13    41 1   
    24    14    15 1   
    25    16    17 ar  
    26    16    43 1   
    27    17    32 ar  
    28    18    19 ar  
    29    18    31 ar  
    30    19    20 ar  
    31    19    44 1   
    32    20    21 ar  
    33    20    45 1   
    34    21    22 1   
    35    21    30 ar  
    36    22    34 1   
    37    23    24 ar  
    38    23    28 ar  
    39    23    34 1   
    40    24    25 ar  
    41    24    46 1   
    42    25    26 ar  
    43    25    47 1   
    44    26    27 ar  
    45    26    48 1   
    46    27    28 ar  
    47    27    49 1   
    48    28    29 1   
    49    29    35 1   
    50    29    36 1   
    51    30    31 ar  
    52    30    50 1   
    53    31    51 1   
    54    32    33 ar  
    55    32    52 1   
    56    33    53 1   
    57    34    54 1   
    58    42    55 1   
@<TRIPOS>SUBSTRUCTURE
     1 7VK         1 TEMP              0 ****  ****    0 ROOT
