@<TRIPOS>MOLECULE
7VK
   55    58     1     0     0
SMALL
No Charge or Current Charge


@<TRIPOS>ATOM
      1 O1          39.9290    14.6330     0.3320 o          1 7VK      -0.712750
      2 C7          41.5490    12.4860    -2.5900 c          1 7VK       0.615700
      3 O2          42.3630    12.4610    -3.5090 o          1 7VK      -0.647600
      4 C3          43.7680    17.0590    -1.0940 ca         1 7VK      -0.179000
      5 C4          44.2980    16.0020    -1.8440 ca         1 7VK      -0.107000
      6 C5          43.5440    14.8350    -2.0380 ca         1 7VK      -0.175000
      7 C6          42.2470    14.7080    -1.4900 ca         1 7VK       0.004000
      8 C1          41.7160    15.7760    -0.7130 ca         1 7VK      -0.190100
      9 C2          42.4880    16.9470    -0.5320 ca         1 7VK      -0.067000
     10 O3          37.8350     8.1590    -2.0130 os         1 7VK      -0.268200
     11 C8          40.5500    11.3570    -2.4030 ca         1 7VK      -0.160100
     12 O4          37.1030     5.6990     3.8860 o          1 7VK      -0.647600
     13 C9          40.5380    10.2850    -3.3280 ca         1 7VK      -0.045250
     14 C           40.3380    15.7100    -0.0780 c          1 7VK       0.717600
     15 O           39.6980    16.7470     0.0180 o          1 7VK      -0.712750
     16 C10         39.6290     9.2230    -3.1870 ca         1 7VK      -0.160750
     17 C11         38.7240     9.2050    -2.1190 ca         1 7VK       0.128100
     18 C12         37.4700     7.6060    -0.8060 ca         1 7VK       0.128100
     19 C13         38.4020     7.4390     0.2320 ca         1 7VK      -0.160750
     20 C14         38.0060     6.8580     1.4490 ca         1 7VK      -0.045250
     21 C15         36.6730     6.4240     1.6460 ca         1 7VK      -0.160100
     22 C16         36.2850     5.8000     2.9760 c          1 7VK       0.615700
     23 C17         34.2360     4.7770     4.1560 ca         1 7VK       0.004000
     24 C18         34.6620     4.9020     5.4980 ca         1 7VK      -0.175000
     25 C19         33.9220     4.3320     6.5450 ca         1 7VK      -0.107000
     26 C20         32.7430     3.6320     6.2660 ca         1 7VK      -0.179000
     27 C21         32.2980     3.5070     4.9410 ca         1 7VK      -0.067000
     28 C22         33.0280     4.0800     3.8730 ca         1 7VK      -0.190100
     29 C23         32.4960     3.9160     2.4610 c          1 7VK       0.717600
     30 C24         35.7470     6.5890     0.5840 ca         1 7VK      -0.045250
     31 C25         36.1500     7.1710    -0.6300 ca         1 7VK      -0.160750
     32 C26         38.7130    10.2670    -1.1970 ca         1 7VK      -0.160750
     33 C27         39.6200    11.3330    -1.3330 ca         1 7VK      -0.045250
     34 N1          34.9760     5.3490     3.0820 ns         1 7VK      -0.157000
     35 O5          32.6690     4.8210     1.6580 o          1 7VK      -0.712750
     36 O6          31.8940     2.8880     2.1880 o          1 7VK      -0.712750
     37 H1          44.3520    17.9640    -0.9430 ha         1 7VK       0.085000
     38 H2          45.2940    16.0840    -2.2720 ha         1 7VK       0.084000
     39 H3          43.9920    14.0280    -2.6100 ha         1 7VK       0.132500
     40 H           42.0960    17.7750     0.0560 ha         1 7VK       0.126000
     41 H5          41.2360    10.2720    -4.1640 ha         1 7VK       0.140250
     42 H4          40.7130    13.4480    -1.0110 hn         1 7VK       0.230500
     43 H6          39.6300     8.4080    -3.9070 ha         1 7VK       0.126250
     44 H7          39.4340     7.7540     0.0990 ha         1 7VK       0.126250
     45 H8          38.7450     6.7420     2.2400 ha         1 7VK       0.140250
     46 H10         35.5620     5.4530     5.7520 ha         1 7VK       0.132500
     47 H11         34.2630     4.4370     7.5730 ha         1 7VK       0.084000
     48 H12         32.1690     3.1890     7.0760 ha         1 7VK       0.085000
     49 H13         31.3740     2.9670     4.7440 ha         1 7VK       0.126000
     50 H14         34.7100     6.2760     0.6780 ha         1 7VK       0.140250
     51 H15         35.4320     7.2910    -1.4380 ha         1 7VK       0.126250
     52 H16         38.0010    10.2700    -0.3760 ha         1 7VK       0.126250
     53 H17         39.5820    12.1290    -0.5930 ha         1 7VK       0.140250
     54 H9          34.4300     5.4440     2.2350 hn         1 7VK       0.230500
     55 N           41.4690    13.5320    -1.6790 ns         1 7VK      -0.157000
@<TRIPOS>BOND
     1     1    14 1   
     2     2     3 2   
     3     2    11 1   
     4     2    55 1   
     5     4     5 ar  
     6     4     9 ar  
     7     4    37 1   
     8     5     6 ar  
     9     5    38 1   
    10     6     7 ar  
    11     6    39 1   
    12     7     8 ar  
    13     7    55 1   
    14     8     9 ar  
    15     8    14 1   
    16     9    40 1   
    17    10    17 1   
    18    10    18 1   
    19    11    13 ar  
    20    11    33 ar  
    21    12    22 2   
    22    13    16 ar  
    23    13    41 1   
    24    14    15 1   
    25    16    17 ar  
    26    16    43 1   
    27    17    32 ar  
    28    18    19 ar  
    29    18    31 ar  
    30    19    20 ar  
    31    19    44 1   
    32    20    21 ar  
    33    20    45 1   
    34    21    22 1   
    35    21    30 ar  
    36    22    34 1   
    37    23    24 ar  
    38    23    28 ar  
    39    23    34 1   
    40    24    25 ar  
    41    24    46 1   
    42    25    26 ar  
    43    25    47 1   
    44    26    27 ar  
    45    26    48 1   
    46    27    28 ar  
    47    27    49 1   
    48    28    29 1   
    49    29    35 1   
    50    29    36 1   
    51    30    31 ar  
    52    30    50 1   
    53    31    51 1   
    54    32    33 ar  
    55    32    52 1   
    56    33    53 1   
    57    34    54 1   
    58    42    55 1   
@<TRIPOS>SUBSTRUCTURE
     1 7VK         1 TEMP              0 ****  ****    0 ROOT
