@<TRIPOS>MOLECULE
7VL
   31    33     1     0     0
SMALL
No Charge or Current Charge


@<TRIPOS>ATOM
      1 C10          3.1300     1.4060    -1.1160 ca         1 7VL      -0.208000
      2 C11          4.9470    -0.4770     1.7020 c3         1 7VL      -0.034800
      3 C12         -1.0410     0.9550     0.1970 ca         1 7VL      -0.082000
      4 C13         -2.2970     1.5560     0.3750 ca         1 7VL      -0.106000
      5 C14         -3.3720    -0.5870    -0.0010 ca         1 7VL      -0.078000
      6 C15         -3.4600     0.7840     0.2710 ca         1 7VL       0.126000
      7 C1          -2.1250    -1.2100    -0.1810 ca         1 7VL       0.272000
      8 C2           0.3240    -1.0540    -0.2820 cp         1 7VL       0.032000
      9 C3           0.3190    -2.4440    -0.5190 ca         1 7VL      -0.164000
     10 C4          -0.8920    -3.1410    -0.5850 ca         1 7VL       0.356900
     11 C5           1.6260    -0.3230    -0.2460 cp         1 7VL      -0.090000
     12 C6           2.6390    -0.7070     0.6640 ca         1 7VL      -0.059000
     13 C7           3.8810    -0.0410     0.7000 ca         1 7VL      -0.107300
     14 C8           4.1200     1.0220    -0.1970 ca         1 7VL       0.147100
     15 C9           1.8960     0.7360    -1.1440 ca         1 7VL      -0.055000
     16 C           -0.9400    -0.4250    -0.0950 ca         1 7VL      -0.073000
     17 N           -2.0900    -2.5410    -0.4250 nb         1 7VL      -0.658000
     18 O            5.3130     1.6850    -0.1870 oh         1 7VL      -0.530100
     19 H1           3.3110     2.2190    -1.8140 ha         1 7VL       0.116000
     20 H2           5.8600    -0.8000     1.1880 hc         1 7VL       0.045367
     21 H3           5.2140     0.3470     2.3750 hc         1 7VL       0.045367
     22 H4           4.6060    -1.3130     2.3240 hc         1 7VL       0.045367
     23 H5          -0.1530     1.5730     0.3000 ha         1 7VL       0.126000
     24 H6          -2.3670     2.6180     0.5970 ha         1 7VL       0.131000
     25 H7          -4.2800    -1.1780    -0.0700 ha         1 7VL       0.147000
     26 H8           1.2520    -2.9800    -0.6680 ha         1 7VL       0.128000
     27 H9          -0.9060    -4.2130    -0.7770 h4         1 7VL       0.021100
     28 H10          2.4480    -1.5270     1.3520 ha         1 7VL       0.119000
     29 H11          1.1400     1.0350    -1.8680 ha         1 7VL       0.121000
     30 H12          5.2840     2.3810    -0.8770 ho         1 7VL       0.466000
     31 Cl          -5.0350     1.5370     0.4950 cl         1 7VL      -0.197000
@<TRIPOS>BOND
     1     1    14 ar  
     2     1    15 ar  
     3     1    19 1   
     4     2    13 1   
     5     2    20 1   
     6     2    21 1   
     7     2    22 1   
     8     3     4 ar  
     9     3    16 ar  
    10     3    23 1   
    11     4     6 ar  
    12     4    24 1   
    13     5     6 ar  
    14     5     7 ar  
    15     5    25 1   
    16     6    31 1   
    17     7    16 ar  
    18     7    17 ar  
    19     8     9 ar  
    20     8    11 1   
    21     8    16 ar  
    22     9    10 ar  
    23     9    26 1   
    24    10    17 ar  
    25    10    27 1   
    26    11    12 ar  
    27    11    15 ar  
    28    12    13 ar  
    29    12    28 1   
    30    13    14 ar  
    31    14    18 1   
    32    15    29 1   
    33    18    30 1   
@<TRIPOS>SUBSTRUCTURE
     1 7VL         1 TEMP              0 ****  ****    0 ROOT
