@<TRIPOS>MOLECULE
7VL
   31    33     1     0     0
SMALL
bcc


@<TRIPOS>ATOM
      1 C10          3.0710     1.4280    -1.0590 ca         1 7VL      -0.226000
      2 C11          4.9580    -0.5210     1.5990 c3         1 7VL      -0.034800
      3 C12         -1.0610     0.9830     0.1780 ca         1 7VL      -0.100000
      4 C13         -2.2950     1.5550     0.3180 ca         1 7VL      -0.124000
      5 C14         -3.3610    -0.5860    -0.0450 ca         1 7VL      -0.161300
      6 C15         -3.4450     0.7550     0.1910 ca         1 7VL       0.034400
      7 C1          -2.0910    -1.1930    -0.1780 ca         1 7VL       0.402600
      8 C2           0.3410    -1.0450    -0.2500 cp         1 7VL       0.032000
      9 C3           0.3330    -2.4070    -0.4250 ca         1 7VL      -0.247300
     10 C4          -0.8890    -3.1010    -0.4760 ca         1 7VL       0.422200
     11 C5           1.6170    -0.3070    -0.2260 cp         1 7VL      -0.090000
     12 C6           2.6480    -0.7170     0.6200 ca         1 7VL      -0.077000
     13 C7           3.8770    -0.0750     0.6610 ca         1 7VL      -0.107300
     14 C8           4.0810     1.0140    -0.1960 ca         1 7VL       0.147100
     15 C9           1.8500     0.7750    -1.0700 ca         1 7VL      -0.073000
     16 C           -0.9180    -0.3980    -0.0940 ca         1 7VL      -0.138300
     17 N           -2.0600    -2.5320    -0.3740 nb         1 7VL      -0.658000
     18 O            5.2790     1.6240    -0.1420 oh         1 7VL      -0.491100
     19 H1           3.2360     2.2650    -1.7280 ha         1 7VL       0.134000
     20 H2           5.8880    -0.7430     1.0730 hc         1 7VL       0.045367
     21 H3           5.1870     0.2470     2.3410 hc         1 7VL       0.045367
     22 H4           4.6560    -1.4190     2.1350 hc         1 7VL       0.045367
     23 H5          -0.1840     1.6030     0.2930 ha         1 7VL       0.144000
     24 H6          -2.3880     2.6110     0.5280 ha         1 7VL       0.149000
     25 H7          -4.2420    -1.2070    -0.1270 ha         1 7VL       0.165000
     26 H8           1.2560    -2.9560    -0.5540 ha         1 7VL       0.146000
     27 H9          -0.8790    -4.1760    -0.6250 h4         1 7VL       0.021100
     28 H10          2.4860    -1.5560     1.2880 ha         1 7VL       0.137000
     29 H11          1.0850     1.1050    -1.7620 ha         1 7VL       0.139000
     30 H12          5.3140     2.3590    -0.7650 ho         1 7VL       0.427000
     31 CL          -4.9960     1.5060     0.3580 cl         1 7VL      -0.105400
@<TRIPOS>BOND
     1     1    14 ar  
     2     1    15 ar  
     3     1    19 1   
     4     2    13 1   
     5     2    20 1   
     6     2    21 1   
     7     2    22 1   
     8     3     4 ar  
     9     3    16 ar  
    10     3    23 1   
    11     4     6 ar  
    12     4    24 1   
    13     5     6 ar  
    14     5     7 ar  
    15     5    25 1   
    16     6    31 1   
    17     7    16 ar  
    18     7    17 ar  
    19     8     9 ar  
    20     8    11 1   
    21     8    16 ar  
    22     9    10 ar  
    23     9    26 1   
    24    10    17 ar  
    25    10    27 1   
    26    11    12 ar  
    27    11    15 ar  
    28    12    13 ar  
    29    12    28 1   
    30    13    14 ar  
    31    14    18 1   
    32    15    29 1   
    33    18    30 1   
@<TRIPOS>SUBSTRUCTURE
     1 7VL         1 TEMP              0 ****  ****    0 ROOT
