@<TRIPOS>MOLECULE
7VM
   68    71     1     0     0
SMALL
No Charge or Current Charge


@<TRIPOS>ATOM
      1 C4          -3.6700     0.3160    -1.5600 c6         1 7VM      -0.108400
      2 C5          -2.6230     1.0460    -2.4490 c6         1 7VM      -0.115000
      3 C6          -2.3970     2.4990    -2.0030 ca         1 7VM       0.355300
      4 N1          -2.5350    -1.9040    -1.9620 n3         1 7VM      -0.722600
      5 C7          -2.5100     4.7500    -2.5480 ca         1 7VM       0.336900
      6 C8          -1.9670     5.1290    -1.3080 ca         1 7VM      -0.162000
      7 N2          -2.7200     3.4600    -2.9000 nb         1 7VM      -0.670000
      8 C9          -1.6300     4.1350    -0.3720 ca         1 7VM      -0.076300
      9 C10         -1.0040     4.4780     0.9740 c3         1 7VM       0.139300
     10 C11          1.4030     3.9110     0.5220 c3         1 7VM       0.091300
     11 C12          0.1860     2.7950     2.4250 c          1 7VM       0.619700
     12 N3           0.1590     3.6080     1.2680 n          1 7VM      -0.405800
     13 C13          1.1180     1.6000     2.4390 ca         1 7VM      -0.123600
     14 C14          1.6050     1.1020     3.6680 ca         1 7VM      -0.086000
     15 C15          2.4410    -0.0290     3.7040 ca         1 7VM      -0.094000
     16 O1          -0.5920     2.9880     3.3520 o          1 7VM      -0.595100
     17 C24          1.4570     0.9120     1.2480 ca         1 7VM      -0.106000
     18 C17          2.2780    -0.2240     1.2870 ca         1 7VM       0.116100
     19 O            2.5850    -0.8670     0.1110 os         1 7VM      -0.256200
     20 C18          2.3790    -2.2150    -0.0800 ca         1 7VM       0.114100
     21 C23          3.1410    -2.8810    -1.0550 ca         1 7VM      -0.139000
     22 C22          2.9420    -4.2530    -1.2940 ca         1 7VM      -0.089000
     23 C21          1.9730    -4.9590    -0.5600 ca         1 7VM      -0.126000
     24 C20          1.2020    -4.2950     0.4100 ca         1 7VM      -0.089000
     25 C19          1.4020    -2.9240     0.6500 ca         1 7VM      -0.139000
     26 C16          2.7840    -0.6900     2.5130 ca         1 7VM      -0.143000
     27 C25         -1.8640     2.7970    -0.7350 ca         1 7VM      -0.140000
     28 C3          -3.8340    -1.1660    -1.9890 c6         1 7VM       0.167800
     29 C26         -1.2960     0.2320    -2.4840 c6         1 7VM      -0.108400
     30 C27         -1.5490    -1.2500    -2.8690 c6         1 7VM       0.167800
     31 C2          -1.9880    -2.1770    -0.5980 c3         1 7VM       0.165800
     32 C1          -2.8840    -3.0580     0.3200 c3         1 7VM       0.153800
     33 N           -2.2380    -3.3290     1.6280 n7         1 7VM      -0.861400
     34 C           -2.9980    -4.2150     2.5290 c3         1 7VM       0.146100
     35 H1          -3.3830     0.3670    -0.5010 hc         1 7VM       0.049200
     36 H2          -4.6400     0.8260    -1.6370 hc         1 7VM       0.049200
     37 H3          -3.0210     1.0590    -3.4740 hc         1 7VM       0.072700
     38 H5          -2.7770     5.5040    -3.2880 h4         1 7VM       0.018100
     39 H6          -1.8090     6.1810    -1.0880 ha         1 7VM       0.119000
     40 H7          -0.6780     5.5270     0.9780 h1         1 7VM       0.069200
     41 H8          -1.7730     4.3750     1.7490 h1         1 7VM       0.069200
     42 H9           1.3850     3.4030    -0.4510 h1         1 7VM       0.043367
     43 H10          1.4850     4.9920     0.3520 h1         1 7VM       0.043367
     44 H11          2.2850     3.5840     1.0880 h1         1 7VM       0.043367
     45 H12          1.3410     1.5990     4.6000 ha         1 7VM       0.130000
     46 H13          2.8190    -0.3940     4.6570 ha         1 7VM       0.120000
     47 H14          1.0570     1.2290     0.2890 ha         1 7VM       0.135000
     48 H15          3.8860    -2.3320    -1.6250 ha         1 7VM       0.128000
     49 H16          3.5360    -4.7660    -2.0470 ha         1 7VM       0.116500
     50 H17          1.8170    -6.0190    -0.7460 ha         1 7VM       0.117000
     51 H18          0.4440    -4.8390     0.9700 ha         1 7VM       0.116500
     52 H19          0.7880    -2.4200     1.3910 ha         1 7VM       0.128000
     53 H20          3.4290    -1.5640     2.5410 ha         1 7VM       0.130000
     54 H21         -1.6200     1.9910    -0.0480 ha         1 7VM       0.140000
     55 H22         -4.5830    -1.6520    -1.3480 h1         1 7VM       0.052200
     56 H23         -4.2470    -1.1870    -3.0080 h1         1 7VM       0.052200
     57 H24         -0.6050     0.6820    -3.2090 hc         1 7VM       0.049200
     58 H25         -0.7870     0.2780    -1.5120 hc         1 7VM       0.049200
     59 H26         -0.5940    -1.7970    -2.8590 h1         1 7VM       0.052200
     60 H27         -1.9180    -1.2850    -3.9060 h1         1 7VM       0.052200
     61 H28         -1.0260    -2.6960    -0.7050 h1         1 7VM       0.038700
     62 H29         -1.7790    -1.2360    -0.0720 h1         1 7VM       0.038700
     63 H30         -3.8450    -2.5520     0.4830 h1         1 7VM       0.035200
     64 H31         -3.0910    -4.0020    -0.2020 h1         1 7VM       0.035200
     65 H32         -2.0960    -2.4320     2.1080 hn         1 7VM       0.403000
     66 H34         -2.4490    -4.3730     3.4670 h1         1 7VM       0.028367
     67 H35         -3.9760    -3.7790     2.7750 h1         1 7VM       0.028367
     68 H36         -3.1660    -5.1960     2.0630 h1         1 7VM       0.028367
@<TRIPOS>BOND
     1     1     2 1   
     2     1    28 1   
     3     1    35 1   
     4     1    36 1   
     5     2     3 1   
     6     2    29 1   
     7     2    37 1   
     8     3     7 ar  
     9     3    27 ar  
    10     4    28 1   
    11     4    30 1   
    12     4    31 1   
    13     5     6 ar  
    14     5     7 ar  
    15     5    38 1   
    16     6     8 ar  
    17     6    39 1   
    18     8     9 1   
    19     8    27 ar  
    20     9    12 1   
    21     9    40 1   
    22     9    41 1   
    23    10    12 1   
    24    10    42 1   
    25    10    43 1   
    26    10    44 1   
    27    11    12 1   
    28    11    13 1   
    29    11    16 2   
    30    13    14 ar  
    31    13    17 ar  
    32    14    15 ar  
    33    14    45 1   
    34    15    26 ar  
    35    15    46 1   
    36    17    18 ar  
    37    17    47 1   
    38    18    19 1   
    39    18    26 ar  
    40    19    20 1   
    41    20    21 ar  
    42    20    25 ar  
    43    21    22 ar  
    44    21    48 1   
    45    22    23 ar  
    46    22    49 1   
    47    23    24 ar  
    48    23    50 1   
    49    24    25 ar  
    50    24    51 1   
    51    25    52 1   
    52    26    53 1   
    53    27    54 1   
    54    28    55 1   
    55    28    56 1   
    56    29    30 1   
    57    29    57 1   
    58    29    58 1   
    59    30    59 1   
    60    30    60 1   
    61    31    32 1   
    62    31    61 1   
    63    31    62 1   
    64    32    33 1   
    65    32    63 1   
    66    32    64 1   
    67    33    34 1   
    68    33    65 1   
    69    34    66 1   
    70    34    67 1   
    71    34    68 1   
@<TRIPOS>SUBSTRUCTURE
     1 7VM         1 TEMP              0 ****  ****    0 ROOT
