@<TRIPOS>MOLECULE
7VM
   68    71     1     0     0
SMALL
abcg2


@<TRIPOS>ATOM
      1 C4          -4.5010     0.5980    -1.5510 c6         1 7VM      -0.108400
      2 C5          -3.0250     0.4450    -1.9400 c6         1 7VM      -0.115000
      3 C6          -2.2640     1.7090    -1.6410 ca         1 7VM       0.355300
      4 N1          -4.6960    -1.8730    -1.1860 n3         1 7VM      -0.722600
      5 C7          -1.4340     3.6890    -2.4260 ca         1 7VM       0.336900
      6 C8          -0.9620     4.0660    -1.1800 ca         1 7VM      -0.162000
      7 N2          -2.0650     2.5450    -2.6600 nb         1 7VM      -0.670000
      8 C9          -1.1610     3.2030    -0.1080 ca         1 7VM      -0.076300
      9 C10         -0.6170     3.5150     1.2620 c3         1 7VM       0.139300
     10 C11          1.8220     3.6500     0.9410 c3         1 7VM       0.091300
     11 C12          0.7660     1.6670     1.9920 c          1 7VM       0.619700
     12 N3           0.6890     2.8990     1.4470 n          1 7VM      -0.405800
     13 C13          2.0860     0.9630     1.9400 ca         1 7VM      -0.123600
     14 C14          2.6340     0.4580     3.1140 ca         1 7VM      -0.086000
     15 C15          3.8160    -0.2650     3.0600 ca         1 7VM      -0.094000
     16 O1          -0.1900     1.1040     2.5100 o          1 7VM      -0.595100
     17 C24          2.6960     0.7040     0.7170 ca         1 7VM      -0.106000
     18 C17          3.8680    -0.0370     0.6760 ca         1 7VM       0.116100
     19 O            4.4500    -0.2040    -0.5460 os         1 7VM      -0.256200
     20 C18          5.0410    -1.3960    -0.8690 ca         1 7VM       0.114100
     21 C23          6.2330    -1.3400    -1.5780 ca         1 7VM      -0.139000
     22 C22          6.8410    -2.5190    -1.9840 ca         1 7VM      -0.089000
     23 C21          6.2710    -3.7480    -1.6760 ca         1 7VM      -0.126000
     24 C20          5.0780    -3.7890    -0.9650 ca         1 7VM      -0.089000
     25 C19          4.4540    -2.6170    -0.5600 ca         1 7VM      -0.139000
     26 C16          4.4410    -0.5190     1.8470 ca         1 7VM      -0.143000
     27 C25         -1.8310     2.0120    -0.3530 ca         1 7VM      -0.140000
     28 C3          -5.2730    -0.6950    -1.8170 c6         1 7VM       0.167800
     29 C26         -2.4380    -0.8070    -1.2840 c6         1 7VM      -0.108400
     30 C27         -3.3090    -2.0240    -1.5940 c6         1 7VM       0.167800
     31 C2          -4.8830    -1.9260     0.2550 c3         1 7VM       0.165800
     32 C1          -6.2960    -2.3490     0.6350 c3         1 7VM       0.153800
     33 N           -6.4420    -2.3740     2.0770 n7         1 7VM      -0.861400
     34 C           -7.7550    -2.8170     2.4980 c3         1 7VM       0.146100
     35 H1          -4.5810     0.8810    -0.4970 hc         1 7VM       0.049200
     36 H2          -4.9540     1.4130    -2.1220 hc         1 7VM       0.049200
     37 H3          -2.9810     0.3060    -3.0260 hc         1 7VM       0.072700
     38 H5          -1.2940     4.3450    -3.2790 h4         1 7VM       0.018100
     39 H6          -0.4550     5.0140    -1.0540 ha         1 7VM       0.119000
     40 H7          -0.5050     4.5930     1.3870 h1         1 7VM       0.069200
     41 H8          -1.2990     3.1670     2.0350 h1         1 7VM       0.069200
     42 H9           1.9130     3.5850    -0.1450 h1         1 7VM       0.043367
     43 H10          1.6930     4.6990     1.2060 h1         1 7VM       0.043367
     44 H11          2.7510     3.3090     1.3860 h1         1 7VM       0.043367
     45 H12          2.1530     0.6420     4.0650 ha         1 7VM       0.130000
     46 H13          4.2610    -0.6370     3.9730 ha         1 7VM       0.120000
     47 H14          2.2700     1.0730    -0.2080 ha         1 7VM       0.135000
     48 H15          6.6770    -0.3810    -1.8090 ha         1 7VM       0.128000
     49 H16          7.7690    -2.4740    -2.5400 ha         1 7VM       0.116500
     50 H17          6.7510    -4.6660    -1.9860 ha         1 7VM       0.117000
     51 H18          4.6210    -4.7410    -0.7280 ha         1 7VM       0.116500
     52 H19          3.5200    -2.6610    -0.0150 ha         1 7VM       0.128000
     53 H20          5.3640    -1.0830     1.8220 ha         1 7VM       0.130000
     54 H21         -2.0140     1.3220     0.4610 ha         1 7VM       0.140000
     55 H22         -6.3100    -0.5800    -1.4990 h1         1 7VM       0.052200
     56 H23         -5.3020    -0.8740    -2.8980 h1         1 7VM       0.052200
     57 H24         -1.4200    -0.9810    -1.6440 hc         1 7VM       0.049200
     58 H25         -2.3670    -0.6820    -0.2000 hc         1 7VM       0.049200
     59 H26         -2.8940    -2.9160    -1.1190 h1         1 7VM       0.052200
     60 H27         -3.2930    -2.2080    -2.6740 h1         1 7VM       0.052200
     61 H28         -4.1910    -2.6660     0.6630 h1         1 7VM       0.038700
     62 H29         -4.6410    -0.9770     0.7600 h1         1 7VM       0.038700
     63 H30         -7.0400    -1.6950     0.1530 h1         1 7VM       0.035200
     64 H31         -6.4760    -3.3560     0.2480 h1         1 7VM       0.035200
     65 H32         -6.2830    -1.4400     2.4350 hn         1 7VM       0.403000
     66 H34         -7.8440    -2.7380     3.5820 h1         1 7VM       0.028367
     67 H35         -8.5850    -2.2540     2.0500 h1         1 7VM       0.028367
     68 H36         -7.8950    -3.8670     2.2330 h1         1 7VM       0.028367
@<TRIPOS>BOND
     1     1     2 1   
     2     1    28 1   
     3     1    35 1   
     4     1    36 1   
     5     2     3 1   
     6     2    29 1   
     7     2    37 1   
     8     3     7 ar  
     9     3    27 ar  
    10     4    28 1   
    11     4    30 1   
    12     4    31 1   
    13     5     6 ar  
    14     5     7 ar  
    15     5    38 1   
    16     6     8 ar  
    17     6    39 1   
    18     8     9 1   
    19     8    27 ar  
    20     9    12 1   
    21     9    40 1   
    22     9    41 1   
    23    10    12 1   
    24    10    42 1   
    25    10    43 1   
    26    10    44 1   
    27    11    12 1   
    28    11    13 1   
    29    11    16 2   
    30    13    14 ar  
    31    13    17 ar  
    32    14    15 ar  
    33    14    45 1   
    34    15    26 ar  
    35    15    46 1   
    36    17    18 ar  
    37    17    47 1   
    38    18    19 1   
    39    18    26 ar  
    40    19    20 1   
    41    20    21 ar  
    42    20    25 ar  
    43    21    22 ar  
    44    21    48 1   
    45    22    23 ar  
    46    22    49 1   
    47    23    24 ar  
    48    23    50 1   
    49    24    25 ar  
    50    24    51 1   
    51    25    52 1   
    52    26    53 1   
    53    27    54 1   
    54    28    55 1   
    55    28    56 1   
    56    29    30 1   
    57    29    57 1   
    58    29    58 1   
    59    30    59 1   
    60    30    60 1   
    61    31    32 1   
    62    31    61 1   
    63    31    62 1   
    64    32    33 1   
    65    32    63 1   
    66    32    64 1   
    67    33    34 1   
    68    33    65 1   
    69    34    66 1   
    70    34    67 1   
    71    34    68 1   
@<TRIPOS>SUBSTRUCTURE
     1 7VM         1 TEMP              0 ****  ****    0 ROOT
