@<TRIPOS>MOLECULE
7VN
   25    25     1     0     0
SMALL
No Charge or Current Charge


@<TRIPOS>ATOM
      1 N          -19.2560   -11.7980    41.8200 n7         1 7VN      -0.832400
      2 C          -19.8210   -13.9270    43.2320 c          1 7VN       0.728000
      3 O          -19.9270   -13.6930    44.4320 o          1 7VN      -0.729500
      4 CA         -18.7630   -13.1160    42.3680 c3         1 7VN       0.039500
      5 CB         -17.3880   -12.9530    43.0910 c5         1 7VN      -0.073700
      6 CG1        -16.6950   -14.2920    43.4590 c5         1 7VN      -0.075900
      7 CG2        -16.2570   -12.3350    42.2230 c5         1 7VN      -0.075900
      8 CD1        -15.3030   -13.8130    43.9580 c5         1 7VN      -0.081400
      9 CD2        -15.0070   -12.5220    43.1300 c5         1 7VN      -0.081400
     10 CN         -19.7210   -10.7980    42.8020 c3         1 7VN       0.158100
     11 H          -18.4950   -11.3770    41.2760 hn         1 7VN       0.363000
     12 H4         -18.5580   -13.7610    41.5030 h1         1 7VN       0.036700
     13 H5         -17.5590   -12.3520    43.9930 hc         1 7VN       0.060700
     14 H6         -17.2340   -14.8520    44.2310 hc         1 7VN       0.038950
     15 H7         -16.6010   -14.9530    42.5880 hc         1 7VN       0.038950
     16 H8         -16.4320   -11.2800    41.9860 hc         1 7VN       0.038950
     17 H9         -16.1410   -12.8660    41.2710 hc         1 7VN       0.038950
     18 H10        -14.5350   -14.5820    43.8140 hc         1 7VN       0.022700
     19 H11        -15.3280   -13.5860    45.0300 hc         1 7VN       0.022700
     20 H12        -14.0890   -12.6130    42.5370 hc         1 7VN       0.022700
     21 H13        -14.8720   -11.6610    43.7950 hc         1 7VN       0.022700
     22 H14        -20.0650    -9.8920    42.2870 h1         1 7VN       0.014700
     23 H15        -20.5600   -11.1870    43.3940 h1         1 7VN       0.014700
     24 H16        -18.9130   -10.5110    43.4870 h1         1 7VN       0.014700
     25 OXT        -20.4940   -14.7810    42.6660 o          1 7VN      -0.729500
@<TRIPOS>BOND
     1     1     4 1   
     2     1    10 1   
     3     1    11 1   
     4     2     3 1   
     5     2     4 1   
     6     2    25 1   
     7     4     5 1   
     8     4    12 1   
     9     5     6 1   
    10     5     7 1   
    11     5    13 1   
    12     6     8 1   
    13     6    14 1   
    14     6    15 1   
    15     7     9 1   
    16     7    16 1   
    17     7    17 1   
    18     8     9 1   
    19     8    18 1   
    20     8    19 1   
    21     9    20 1   
    22     9    21 1   
    23    10    22 1   
    24    10    23 1   
    25    10    24 1   
@<TRIPOS>SUBSTRUCTURE
     1 7VN         1 TEMP              0 ****  ****    0 ROOT
