@<TRIPOS>MOLECULE
7VN
   25    25     1     0     0
SMALL
abcg2


@<TRIPOS>ATOM
      1 N          -19.2340   -12.0050    41.7110 n7         1 7VN      -0.832400
      2 C          -19.7940   -13.8990    43.1730 c          1 7VN       0.728000
      3 O          -19.8800   -13.6820    44.4000 o          1 7VN      -0.729500
      4 CA         -18.6650   -13.1700    42.3920 c3         1 7VN       0.039500
      5 CB         -17.4280   -12.8810    43.2410 c5         1 7VN      -0.073700
      6 CG1        -16.7510   -14.1630    43.7780 c5         1 7VN      -0.075900
      7 CG2        -16.3120   -12.1480    42.4870 c5         1 7VN      -0.075900
      8 CD1        -15.2320   -13.9660    43.6020 c5         1 7VN      -0.081400
      9 CD2        -15.0590   -12.4790    43.2890 c5         1 7VN      -0.081400
     10 CN         -19.6440   -10.9100    42.5690 c3         1 7VN       0.158100
     11 H          -18.5530   -11.6560    41.0480 hn         1 7VN       0.363000
     12 H4         -18.3470   -13.8450    41.5860 h1         1 7VN       0.036700
     13 H5         -17.7130   -12.2620    44.0960 hc         1 7VN       0.060700
     14 H6         -17.0160   -14.3330    44.8210 hc         1 7VN       0.038950
     15 H7         -17.0930   -15.0460    43.2290 hc         1 7VN       0.038950
     16 H8         -16.4920   -11.0740    42.3990 hc         1 7VN       0.038950
     17 H9         -16.2120   -12.5440    41.4690 hc         1 7VN       0.038950
     18 H10        -14.8700   -14.5590    42.7580 hc         1 7VN       0.022700
     19 H11        -14.6600   -14.2840    44.4750 hc         1 7VN       0.022700
     20 H12        -14.1300   -12.2580    42.7600 hc         1 7VN       0.022700
     21 H13        -15.0510   -11.8950    44.2150 hc         1 7VN       0.022700
     22 H14        -20.0070   -10.0900    41.9470 h1         1 7VN       0.014700
     23 H15        -20.4700   -11.2160    43.2120 h1         1 7VN       0.014700
     24 H16        -18.8580   -10.5040    43.2180 h1         1 7VN       0.014700
     25 OXT        -20.5430   -14.6320    42.4970 o          1 7VN      -0.729500
@<TRIPOS>BOND
     1     1     4 1   
     2     1    10 1   
     3     1    11 1   
     4     2     3 1   
     5     2     4 1   
     6     2    25 1   
     7     4     5 1   
     8     4    12 1   
     9     5     6 1   
    10     5     7 1   
    11     5    13 1   
    12     6     8 1   
    13     6    14 1   
    14     6    15 1   
    15     7     9 1   
    16     7    16 1   
    17     7    17 1   
    18     8     9 1   
    19     8    18 1   
    20     8    19 1   
    21     9    20 1   
    22     9    21 1   
    23    10    22 1   
    24    10    23 1   
    25    10    24 1   
@<TRIPOS>SUBSTRUCTURE
     1 7VN         1 TEMP              0 ****  ****    0 ROOT
