@<TRIPOS>MOLECULE
7VP
   22    23     1     0     0
SMALL
No Charge or Current Charge


@<TRIPOS>ATOM
      1 C01          3.9590    -1.0280     0.0320 c3         1 7VP      -0.108400
      2 C02          2.7220    -0.1780     0.0140 cc         1 7VP       0.253300
      3 C03          2.6450     1.1870    -0.0080 cd         1 7VP      -0.230000
      4 N04          1.2860     1.4640    -0.0180 na         1 7VP      -0.289500
      5 C05          0.6120     0.2560    -0.0010 cd         1 7VP       0.458000
      6 C06         -0.8580     0.0710    -0.0040 ca         1 7VP      -0.118500
      7 C07         -1.7250     1.1880    -0.0250 ca         1 7VP      -0.091000
      8 C08         -3.1200     1.0120    -0.0280 ca         1 7VP      -0.112500
      9 C09         -3.6690    -0.2800    -0.0100 ca         1 7VP      -0.103000
     10 C10         -2.8200    -1.3980     0.0110 ca         1 7VP      -0.112500
     11 C11         -1.4250    -1.2250     0.0140 ca         1 7VP      -0.091000
     12 N12          1.4820    -0.7460     0.0180 nc         1 7VP      -0.675000
     13 H013         3.9870    -1.6550     0.9300 hc         1 7VP       0.043033
     14 H012         3.9940    -1.6840    -0.8450 hc         1 7VP       0.043033
     15 H011         4.8610    -0.4060     0.0260 hc         1 7VP       0.043033
     16 H031         3.4220     1.9420    -0.0170 h4         1 7VP       0.157000
     17 H041         0.8480     2.3770    -0.0340 hn         1 7VP       0.352000
     18 H071        -1.3280     2.2000    -0.0400 ha         1 7VP       0.119500
     19 H081        -3.7770     1.8790    -0.0450 ha         1 7VP       0.114000
     20 H091        -4.7490    -0.4150    -0.0120 ha         1 7VP       0.114000
     21 H101        -3.2430    -2.4000     0.0260 ha         1 7VP       0.114000
     22 H111        -0.7860    -2.1050     0.0310 ha         1 7VP       0.119500
@<TRIPOS>BOND
     1     1     2 1   
     2     1    13 1   
     3     1    14 1   
     4     1    15 1   
     5     2     3 2   
     6     2    12 1   
     7     3     4 1   
     8     3    16 1   
     9     4     5 1   
    10     4    17 1   
    11     5     6 1   
    12     5    12 2   
    13     6     7 ar  
    14     6    11 ar  
    15     7     8 ar  
    16     7    18 1   
    17     8     9 ar  
    18     8    19 1   
    19     9    10 ar  
    20     9    20 1   
    21    10    11 ar  
    22    10    21 1   
    23    11    22 1   
@<TRIPOS>SUBSTRUCTURE
     1 7VP         1 TEMP              0 ****  ****    0 ROOT
