@<TRIPOS>MOLECULE
7VP
   22    23     1     0     0
SMALL
bcc


@<TRIPOS>ATOM
      1 C01          3.9410    -1.0270     0.0300 c3         1 7VP      -0.108400
      2 C02          2.7020    -0.2000     0.0130 cc         1 7VP       0.318600
      3 C03          2.5880     1.1640    -0.0050 cd         1 7VP      -0.262600
      4 N04          1.2490     1.4210    -0.0140 na         1 7VP      -0.289900
      5 C05          0.5990     0.2360    -0.0020 cd         1 7VP       0.458000
      6 C06         -0.8550     0.0880    -0.0050 ca         1 7VP      -0.118500
      7 C07         -1.7140     1.1880    -0.0290 ca         1 7VP      -0.109000
      8 C08         -3.0900     1.0070    -0.0310 ca         1 7VP      -0.130500
      9 C09         -3.6300    -0.2720    -0.0090 ca         1 7VP      -0.121000
     10 C10         -2.7810    -1.3720     0.0140 ca         1 7VP      -0.130500
     11 C11         -1.4070    -1.1950     0.0170 ca         1 7VP      -0.109000
     12 N12          1.4580    -0.7590     0.0150 nc         1 7VP      -0.675000
     13 H013         3.9800    -1.6650     0.9140 hc         1 7VP       0.043033
     14 H012         3.9950    -1.6800    -0.8430 hc         1 7VP       0.043033
     15 H011         4.8310    -0.4000     0.0320 hc         1 7VP       0.043033
     16 H031         3.3250     1.9490    -0.0120 h4         1 7VP       0.175000
     17 H041         0.8400     2.3420    -0.0290 hn         1 7VP       0.301700
     18 H071        -1.3290     2.1990    -0.0470 ha         1 7VP       0.137500
     19 H081        -3.7410     1.8710    -0.0490 ha         1 7VP       0.132000
     20 H091        -4.7030    -0.4090    -0.0110 ha         1 7VP       0.132000
     21 H101        -3.1900    -2.3740     0.0310 ha         1 7VP       0.132000
     22 H111        -0.7500    -2.0540     0.0360 ha         1 7VP       0.137500
@<TRIPOS>BOND
     1     1     2 1   
     2     1    13 1   
     3     1    14 1   
     4     1    15 1   
     5     2     3 2   
     6     2    12 1   
     7     3     4 1   
     8     3    16 1   
     9     4     5 1   
    10     4    17 1   
    11     5     6 1   
    12     5    12 2   
    13     6     7 ar  
    14     6    11 ar  
    15     7     8 ar  
    16     7    18 1   
    17     8     9 ar  
    18     8    19 1   
    19     9    10 ar  
    20     9    20 1   
    21    10    11 ar  
    22    10    21 1   
    23    11    22 1   
@<TRIPOS>SUBSTRUCTURE
     1 7VP         1 TEMP              0 ****  ****    0 ROOT
