@<TRIPOS>MOLECULE
7VQ
   74    76     1     0     0
SMALL
No Charge or Current Charge


@<TRIPOS>ATOM
      1 N            6.9720     1.4600    26.6980 ns         1 7VQ      -0.494900
      2 C            4.5400     1.5360    32.0250 ca         1 7VQ      -0.118500
      3 O            5.0430     0.6950    27.4670 os         1 7VQ      -0.462100
      4 C1           5.1610     0.3520    32.4570 ca         1 7VQ      -0.098000
      5 C10          9.2970     2.0340    27.4480 c3         1 7VQ      -0.074700
      6 C11          8.8640     2.1020    28.9360 c3         1 7VQ      -0.093100
      7 C12         10.5420     2.9280    27.2170 c3         1 7VQ      -0.093100
      8 C13          9.4370     3.5300    22.9730 c3         1 7VQ       0.040700
      9 C14         10.7030     4.4270    22.8620 c          1 7VQ       0.580100
     10 C15          8.2630     4.1000    22.1360 c3         1 7VQ      -0.108700
     11 C16          7.0350     3.2340    22.1540 cc         1 7VQ       0.118300
     12 C17          5.7470     1.5440    21.5440 cc         1 7VQ       0.135900
     13 C18          5.0710     2.2370    22.5110 cd         1 7VQ      -0.181000
     14 C19          5.8910     3.3170    22.8980 cd         1 7VQ      -0.168000
     15 C2           5.3660    -0.7030    31.5520 ca         1 7VQ      -0.118500
     16 C20         12.5700     5.1230    21.3140 c3         1 7VQ       0.103700
     17 C21         12.2090     6.5380    20.7820 c3         1 7VQ       0.151600
     18 C22         13.4630     4.3090    20.3410 c3         1 7VQ      -0.070400
     19 C23         13.8500     2.8840    20.8360 c5         1 7VQ      -0.155700
     20 C24         14.6150     2.8390    22.1880 c5         1 7VQ      -0.093400
     21 C25         15.2880     1.4410    22.1140 c5         1 7VQ       0.100000
     22 C26         14.7980     2.1360    19.8890 c          1 7VQ       0.561000
     23 C3           4.9500    -0.5740    30.2150 ca         1 7VQ      -0.081000
     24 C4           4.3270     0.6110    29.7750 ca         1 7VQ      -0.133300
     25 C5           4.1240     1.6660    30.6880 ca         1 7VQ      -0.081000
     26 C6           3.8840     0.7480    28.3190 c3         1 7VQ       0.229900
     27 C7           5.8760     1.7720    27.4470 c          1 7VQ       0.642100
     28 C8           8.1260     2.3530    26.4590 c3         1 7VQ       0.060700
     29 C9           8.5510     2.2270    24.9660 c          1 7VQ       0.583100
     30 N1           9.0390     3.3840    24.3910 ns         1 7VQ      -0.483900
     31 N2          11.3540     4.3690    21.6470 ns         1 7VQ      -0.491900
     32 N3          15.6020     1.3720    20.6890 ns         1 7VQ      -0.516900
     33 O1           5.6840     2.8450    27.9960 o          1 7VQ      -0.547000
     34 O2           8.4490     1.1830    24.3310 o          1 7VQ      -0.616100
     35 O3           6.9610     2.1520    21.3060 os         1 7VQ      -0.258000
     36 O4          11.1070     5.1310    23.7790 o          1 7VQ      -0.612100
     37 O5          15.0080     2.3100    18.6990 o          1 7VQ      -0.560000
     38 H1           6.9710     0.5400    26.2740 hn         1 7VQ       0.346500
     39 H3           5.4840     0.2520    33.4920 ha         1 7VQ       0.112000
     40 H4           9.6110     0.9990    27.2570 hc         1 7VQ       0.060700
     41 H5           9.7150     1.9000    29.5980 hc         1 7VQ       0.041700
     42 H6           8.4690     3.0950    29.1820 hc         1 7VQ       0.041700
     43 H7           8.0930     1.3570    29.1630 hc         1 7VQ       0.041700
     44 H8          11.3230     2.7020    27.9530 hc         1 7VQ       0.041700
     45 H9          10.9760     2.7590    26.2250 hc         1 7VQ       0.041700
     46 H10         10.2840     3.9900    27.3100 hc         1 7VQ       0.041700
     47 H11          9.7120     2.5440    22.5750 h1         1 7VQ       0.085700
     48 H12          8.5860     4.2330    21.0960 hc         1 7VQ       0.078700
     49 H13          8.0090     5.1000    22.5070 hc         1 7VQ       0.078700
     50 H14          5.5000     0.6580    20.9730 h4         1 7VQ       0.054100
     51 H15          4.0890     1.9930    22.9010 ha         1 7VQ       0.145000
     52 H16          5.6660     4.0690    23.6480 ha         1 7VQ       0.141000
     53 H17          5.8470    -1.6200    31.8850 ha         1 7VQ       0.114500
     54 H18         13.1420     5.2670    22.2420 h1         1 7VQ       0.092700
     55 H19         11.5420     7.0280    21.5030 h1         1 7VQ       0.028200
     56 H20         11.6560     6.4350    19.8380 h1         1 7VQ       0.028200
     57 H21         12.9480     4.2310    19.3760 hc         1 7VQ       0.068200
     58 H22         14.3810     4.8790    20.1480 hc         1 7VQ       0.068200
     59 H23         12.9500     2.2650    20.9310 hc         1 7VQ       0.090700
     60 H24         15.3730     3.6300    22.2440 hc         1 7VQ       0.064200
     61 H25         13.9610     2.9470    23.0610 hc         1 7VQ       0.064200
     62 H26         16.1800     1.3790    22.7520 h1         1 7VQ       0.043700
     63 H27         14.5930     0.6440    22.4080 h1         1 7VQ       0.043700
     64 H28          5.1150    -1.3940    29.5190 ha         1 7VQ       0.119500
     65 H29          3.6490     2.5890    30.3620 ha         1 7VQ       0.119500
     66 H30          3.3220     1.6800    28.1690 h1         1 7VQ       0.070200
     67 H31          3.2070    -0.0830    28.0810 h1         1 7VQ       0.070200
     68 H32          7.8030     3.3910    26.6150 h1         1 7VQ       0.087700
     69 H33          9.1350     4.1930    24.9950 hn         1 7VQ       0.332500
     70 H34         10.9550     3.7630    20.9400 hn         1 7VQ       0.322500
     71 H35         16.3650     0.8530    20.2680 hn         1 7VQ       0.325500
     72 H36         13.0870     8.2130    20.2540 ho         1 7VQ       0.448000
     73 O6          13.3860     7.3370    20.5850 oh         1 7VQ      -0.663000
     74 H2           4.3830     2.3540    32.7240 ha         1 7VQ       0.114500
@<TRIPOS>BOND
     1     1    27 1   
     2     1    28 1   
     3     1    38 1   
     4     2     4 ar  
     5     2    25 ar  
     6     2    74 1   
     7     3    26 1   
     8     3    27 1   
     9     4    15 ar  
    10     4    39 1   
    11     5     6 1   
    12     5     7 1   
    13     5    28 1   
    14     5    40 1   
    15     6    41 1   
    16     6    42 1   
    17     6    43 1   
    18     7    44 1   
    19     7    45 1   
    20     7    46 1   
    21     8     9 1   
    22     8    10 1   
    23     8    30 1   
    24     8    47 1   
    25     9    31 1   
    26     9    36 2   
    27    10    11 1   
    28    10    48 1   
    29    10    49 1   
    30    11    14 2   
    31    11    35 1   
    32    12    13 2   
    33    12    35 1   
    34    12    50 1   
    35    13    14 1   
    36    13    51 1   
    37    14    52 1   
    38    15    23 ar  
    39    15    53 1   
    40    16    17 1   
    41    16    18 1   
    42    16    31 1   
    43    16    54 1   
    44    17    55 1   
    45    17    56 1   
    46    17    73 1   
    47    18    19 1   
    48    18    57 1   
    49    18    58 1   
    50    19    20 1   
    51    19    22 1   
    52    19    59 1   
    53    20    21 1   
    54    20    60 1   
    55    20    61 1   
    56    21    32 1   
    57    21    62 1   
    58    21    63 1   
    59    22    32 1   
    60    22    37 2   
    61    23    24 ar  
    62    23    64 1   
    63    24    25 ar  
    64    24    26 1   
    65    25    65 1   
    66    26    66 1   
    67    26    67 1   
    68    27    33 2   
    69    28    29 1   
    70    28    68 1   
    71    29    30 1   
    72    29    34 2   
    73    30    69 1   
    74    31    70 1   
    75    32    71 1   
    76    72    73 1   
@<TRIPOS>SUBSTRUCTURE
     1 7VQ         1 TEMP              0 ****  ****    0 ROOT
