@<TRIPOS>MOLECULE
7VQ
   74    76     1     0     0
SMALL
abcg2


@<TRIPOS>ATOM
      1 N            7.8720     1.4490    26.0420 ns         1 7VQ      -0.494900
      2 C            6.0600    -0.0550    31.3500 ca         1 7VQ      -0.118500
      3 O            6.3760    -0.0360    26.7270 os         1 7VQ      -0.462100
      4 C1           6.9080    -1.1340    31.5750 ca         1 7VQ      -0.098000
      5 C10          9.7860     2.9420    26.6180 c3         1 7VQ      -0.074700
      6 C11          9.5450     2.7390    28.1130 c3         1 7VQ      -0.093100
      7 C12         10.3890     4.3210    26.3470 c3         1 7VQ      -0.093100
      8 C13          8.6290     4.2820    22.3290 c3         1 7VQ       0.040700
      9 C14         10.1040     4.6660    22.1360 c          1 7VQ       0.580100
     10 C15          7.7250     5.4210    21.8350 c3         1 7VQ      -0.108700
     11 C16          6.2820     5.1230    22.0090 cc         1 7VQ       0.118300
     12 C17          4.4550     3.9450    21.6330 cc         1 7VQ       0.135900
     13 C18          4.1120     4.9020    22.5280 cd         1 7VQ      -0.181000
     14 C19          5.3010     5.6670    22.7740 cd         1 7VQ      -0.168000
     15 C2           7.2340    -1.9900    30.5250 ca         1 7VQ      -0.118500
     16 C20         12.2200     3.9790    21.0500 c3         1 7VQ       0.103700
     17 C21         12.4470     4.1990    19.5580 c3         1 7VQ       0.151600
     18 C22         12.9420     2.7370    21.5800 c3         1 7VQ      -0.070400
     19 C23         12.7780     2.5450    23.0820 c5         1 7VQ      -0.155700
     20 C24         13.4390     3.6100    23.9700 c5         1 7VQ      -0.093400
     21 C25         13.7970     2.8540    25.2570 c5         1 7VQ       0.100000
     22 C26         13.3780     1.2370    23.5890 c          1 7VQ       0.561000
     23 C3           6.7110    -1.7640    29.2570 ca         1 7VQ      -0.081000
     24 C4           5.8630    -0.6800    29.0220 ca         1 7VQ      -0.133300
     25 C5           5.5430     0.1710    30.0770 ca         1 7VQ      -0.081000
     26 C6           5.3230    -0.4350    27.6400 c3         1 7VQ       0.229900
     27 C7           6.7480     1.2670    26.7610 c          1 7VQ       0.642100
     28 C8           8.4770     2.7470    25.8170 c3         1 7VQ       0.060700
     29 C9           8.7530     2.8630    24.3190 c          1 7VQ       0.583100
     30 N1           8.3680     4.0070    23.7300 ns         1 7VQ      -0.483900
     31 N2          10.7880     3.8750    21.2960 ns         1 7VQ      -0.491900
     32 N3          13.9600     1.4850    24.7790 ns         1 7VQ      -0.516900
     33 O1           6.1350     2.1390    27.3550 o          1 7VQ      -0.547000
     34 O2           9.3090     1.9500    23.7100 o          1 7VQ      -0.616100
     35 O3           5.7770     4.0630    21.3030 os         1 7VQ      -0.258000
     36 O4          10.5810     5.6350    22.7240 o          1 7VQ      -0.612100
     37 O5          13.3210     0.1430    23.0310 o          1 7VQ      -0.560000
     38 H1           8.2940     0.6490    25.5960 hn         1 7VQ       0.346500
     39 H3           7.3120    -1.3110    32.5640 ha         1 7VQ       0.112000
     40 H4          10.4880     2.1770    26.2700 hc         1 7VQ       0.060700
     41 H5          10.4860     2.8370    28.6580 hc         1 7VQ       0.041700
     42 H6           8.8510     3.4900    28.4980 hc         1 7VQ       0.041700
     43 H7           9.1320     1.7520    28.3260 hc         1 7VQ       0.041700
     44 H8          11.2970     4.4560    26.9370 hc         1 7VQ       0.041700
     45 H9          10.6490     4.4610    25.2980 hc         1 7VQ       0.041700
     46 H10          9.6850     5.1090    26.6280 hc         1 7VQ       0.041700
     47 H11          8.4090     3.3750    21.7660 h1         1 7VQ       0.085700
     48 H12          7.9570     5.6020    20.7830 hc         1 7VQ       0.078700
     49 H13          7.9630     6.3320    22.3860 hc         1 7VQ       0.078700
     50 H14          3.9160     3.1480    21.1500 h4         1 7VQ       0.054100
     51 H15          3.1370     5.0520    22.9630 ha         1 7VQ       0.145000
     52 H16          5.4120     6.5100    23.4370 ha         1 7VQ       0.141000
     53 H17          7.8900    -2.8340    30.6960 ha         1 7VQ       0.114500
     54 H18         12.5610     4.8650    21.5850 h1         1 7VQ       0.092700
     55 H19         11.8540     5.0600    19.2340 h1         1 7VQ       0.028200
     56 H20         12.1080     3.3170    19.0010 h1         1 7VQ       0.028200
     57 H21         12.5570     1.8560    21.0590 hc         1 7VQ       0.068200
     58 H22         14.0020     2.8220    21.3340 hc         1 7VQ       0.068200
     59 H23         11.7110     2.4780    23.3220 hc         1 7VQ       0.090700
     60 H24         14.3520     3.9690    23.4880 hc         1 7VQ       0.064200
     61 H25         12.7950     4.4650    24.1590 hc         1 7VQ       0.064200
     62 H26         14.7150     3.2150    25.7200 h1         1 7VQ       0.043700
     63 H27         12.9930     2.9090    25.9950 h1         1 7VQ       0.043700
     64 H28          6.9620    -2.4330    28.4420 ha         1 7VQ       0.119500
     65 H29          4.8890     1.0160    29.9000 ha         1 7VQ       0.119500
     66 H30          4.5450     0.3250    27.6490 h1         1 7VQ       0.070200
     67 H31          4.9320    -1.3510    27.2020 h1         1 7VQ       0.070200
     68 H32          7.7550     3.5010    26.1290 h1         1 7VQ       0.087700
     69 H33          7.9460     4.7300    24.2920 hn         1 7VQ       0.332500
     70 H34         10.3160     3.0610    20.9300 hn         1 7VQ       0.322500
     71 H35         14.3040     0.7370    25.3620 hn         1 7VQ       0.325500
     72 H36         13.9860     4.5180    18.3930 ho         1 7VQ       0.448000
     73 O6          13.8380     4.4320    19.3420 oh         1 7VQ      -0.663000
     74 H2           5.8030     0.6130    32.1620 ha         1 7VQ       0.114500
@<TRIPOS>BOND
     1     1    27 1   
     2     1    28 1   
     3     1    38 1   
     4     2     4 ar  
     5     2    25 ar  
     6     2    74 1   
     7     3    26 1   
     8     3    27 1   
     9     4    15 ar  
    10     4    39 1   
    11     5     6 1   
    12     5     7 1   
    13     5    28 1   
    14     5    40 1   
    15     6    41 1   
    16     6    42 1   
    17     6    43 1   
    18     7    44 1   
    19     7    45 1   
    20     7    46 1   
    21     8     9 1   
    22     8    10 1   
    23     8    30 1   
    24     8    47 1   
    25     9    31 1   
    26     9    36 2   
    27    10    11 1   
    28    10    48 1   
    29    10    49 1   
    30    11    14 2   
    31    11    35 1   
    32    12    13 2   
    33    12    35 1   
    34    12    50 1   
    35    13    14 1   
    36    13    51 1   
    37    14    52 1   
    38    15    23 ar  
    39    15    53 1   
    40    16    17 1   
    41    16    18 1   
    42    16    31 1   
    43    16    54 1   
    44    17    55 1   
    45    17    56 1   
    46    17    73 1   
    47    18    19 1   
    48    18    57 1   
    49    18    58 1   
    50    19    20 1   
    51    19    22 1   
    52    19    59 1   
    53    20    21 1   
    54    20    60 1   
    55    20    61 1   
    56    21    32 1   
    57    21    62 1   
    58    21    63 1   
    59    22    32 1   
    60    22    37 2   
    61    23    24 ar  
    62    23    64 1   
    63    24    25 ar  
    64    24    26 1   
    65    25    65 1   
    66    26    66 1   
    67    26    67 1   
    68    27    33 2   
    69    28    29 1   
    70    28    68 1   
    71    29    30 1   
    72    29    34 2   
    73    30    69 1   
    74    31    70 1   
    75    32    71 1   
    76    72    73 1   
@<TRIPOS>SUBSTRUCTURE
     1 7VQ         1 TEMP              0 ****  ****    0 ROOT
