@<TRIPOS>MOLECULE
7VR
   57    59     1     0     0
SMALL
abcg2


@<TRIPOS>ATOM
      1 CAA         12.3210     1.3120     0.7470 c3         1 7VR      -0.099100
      2 CAL         10.8240     1.4960     0.8330 c3         1 7VR       0.169600
      3 OAV         10.2100     0.3160     0.3280 os         1 7VR      -0.321000
      4 NAT          8.8530     0.4360     0.3600 n2         1 7VR      -0.337700
      5 CAC          8.2620    -0.5930    -0.0930 ce         1 7VR       0.427800
      6 CAY          6.8060    -0.6670    -0.1530 ca         1 7VR      -0.180900
      7 CAI          6.2070    -1.8170    -0.6720 ca         1 7VR      -0.043000
      8 CAK          4.8340    -1.9310    -0.7630 ca         1 7VR      -0.182500
      9 CAH          5.9760     0.3650     0.2820 ca         1 7VR      -0.043000
     10 CAJ          4.5980     0.2650     0.1980 ca         1 7VR      -0.182500
     11 CAZ          4.0130    -0.8870    -0.3330 ca         1 7VR       0.162100
     12 OAW          2.6900    -1.0720    -0.4680 os         1 7VR      -0.347100
     13 CAP          1.8050    -0.0230    -0.1010 c3         1 7VR       0.165600
     14 CAN          0.3940    -0.4420    -0.4570 c3         1 7VR      -0.081400
     15 CAM         -0.6100     0.6510    -0.1090 c3         1 7VR      -0.072400
     16 CAO         -2.0370     0.2660    -0.4750 c3         1 7VR      -0.098400
     17 CAQ         -3.0300     1.3670    -0.1210 c3         1 7VR       0.126000
     18 NBB         -4.3830     1.0430    -0.5010 n          1 7VR      -0.426800
     19 CAX         -5.3240     0.6160     0.3630 c          1 7VR       0.623000
     20 OAB         -5.1690     0.4030     1.5520 o          1 7VR      -0.560000
     21 CAR         -4.9020     1.2960    -1.8230 c5         1 7VR       0.091000
     22 CAS         -6.2660     0.6110    -1.7800 c5         1 7VR       0.083000
     23 NBC         -6.5080     0.4550    -0.3530 n          1 7VR      -0.236400
     24 CBA         -7.7020    -0.0270     0.1370 ca         1 7VR       0.044000
     25 CAF         -8.0230    -0.0780     1.5000 ca         1 7VR      -0.213000
     26 CAD         -9.2650    -0.5570     1.8730 ca         1 7VR       0.355400
     27 NAU        -10.2030    -0.9800     1.0310 nb         1 7VR      -0.683000
     28 CAE         -9.8950    -0.9240    -0.2590 ca         1 7VR       0.355400
     29 CAG         -8.6870    -0.4680    -0.7550 ca         1 7VR      -0.213000
     30 HAA1        12.8160     2.2080     1.1190 hc         1 7VR       0.043700
     31 HAA2        12.6580     0.4700     1.3530 hc         1 7VR       0.043700
     32 HAA3        12.6480     1.1530    -0.2810 hc         1 7VR       0.043700
     33 HAL1        10.5160     1.6660     1.8690 h1         1 7VR       0.036700
     34 HAL2        10.5090     2.3630     0.2440 h1         1 7VR       0.036700
     35 HAC          8.8180    -1.4570    -0.4590 h4         1 7VR       0.002800
     36 HAI          6.8260    -2.6380    -1.0150 ha         1 7VR       0.122000
     37 HAH          6.4080     1.2670     0.6940 ha         1 7VR       0.122000
     38 HAK          4.3870    -2.8280    -1.1730 ha         1 7VR       0.123500
     39 HAJ          3.9970     1.0930     0.5490 ha         1 7VR       0.123500
     40 HAP1         1.8850     0.1800     0.9730 h1         1 7VR       0.036200
     41 HAP2         2.0700     0.8980    -0.6330 h1         1 7VR       0.036200
     42 HAN1         0.3400    -0.6610    -1.5270 hc         1 7VR       0.057700
     43 HAN2         0.1350    -1.3620     0.0730 hc         1 7VR       0.057700
     44 HAM1        -0.5540     0.8740     0.9610 hc         1 7VR       0.041700
     45 HAM2        -0.3370     1.5750    -0.6290 hc         1 7VR       0.041700
     46 HAO1        -2.0950     0.0480    -1.5450 hc         1 7VR       0.050700
     47 HAO2        -2.3220    -0.6520     0.0480 hc         1 7VR       0.050700
     48 HAQ1        -3.0060     1.5640     0.9510 h1         1 7VR       0.057700
     49 HAQ2        -2.7510     2.2990    -0.6200 h1         1 7VR       0.057700
     50 HAR1        -4.9900     2.3710    -2.0070 h1         1 7VR       0.053700
     51 HAR2        -4.2640     0.8710    -2.5980 h1         1 7VR       0.053700
     52 HAS1        -7.0420     1.2160    -2.2480 h1         1 7VR       0.059700
     53 HAS2        -6.2420    -0.3620    -2.2770 h1         1 7VR       0.059700
     54 HAF         -7.3360     0.2500     2.2620 ha         1 7VR       0.136000
     55 HAG         -8.5310    -0.4670    -1.8240 ha         1 7VR       0.136000
     56 HAD         -9.5120    -0.5940     2.9290 h4         1 7VR       0.017100
     57 HAE        -10.6530    -1.2660    -0.9560 h4         1 7VR       0.017100
@<TRIPOS>BOND
     1     1     2 1   
     2     1    30 1   
     3     1    31 1   
     4     1    32 1   
     5     2     3 1   
     6     2    33 1   
     7     2    34 1   
     8     3     4 1   
     9     4     5 2   
    10     5     6 1   
    11     5    35 1   
    12     6     7 ar  
    13     6     9 ar  
    14     7     8 ar  
    15     7    36 1   
    16     8    11 ar  
    17     8    38 1   
    18     9    10 ar  
    19     9    37 1   
    20    10    11 ar  
    21    10    39 1   
    22    11    12 1   
    23    12    13 1   
    24    13    14 1   
    25    13    40 1   
    26    13    41 1   
    27    14    15 1   
    28    14    42 1   
    29    14    43 1   
    30    15    16 1   
    31    15    44 1   
    32    15    45 1   
    33    16    17 1   
    34    16    46 1   
    35    16    47 1   
    36    17    18 1   
    37    17    48 1   
    38    17    49 1   
    39    18    19 1   
    40    18    21 1   
    41    19    20 2   
    42    19    23 1   
    43    21    22 1   
    44    21    50 1   
    45    21    51 1   
    46    22    23 1   
    47    22    52 1   
    48    22    53 1   
    49    23    24 1   
    50    24    25 ar  
    51    24    29 ar  
    52    25    26 ar  
    53    25    54 1   
    54    26    27 ar  
    55    26    56 1   
    56    27    28 ar  
    57    28    29 ar  
    58    28    57 1   
    59    29    55 1   
@<TRIPOS>SUBSTRUCTURE
     1 7VR         1 TEMP              0 ****  ****    0 ROOT
