@<TRIPOS>MOLECULE
7VR
   57    59     1     0     0
SMALL
No Charge or Current Charge


@<TRIPOS>ATOM
      1 CAA         12.5450     0.9440     1.1870 c3         1 7VR      -0.099100
      2 CAL         11.0340     1.2240     1.1460 c3         1 7VR       0.169600
      3 OAV         10.3940     0.0880     0.5370 os         1 7VR      -0.321000
      4 NAT          8.9990     0.2890     0.4710 n2         1 7VR      -0.337700
      5 CAC          8.3490    -0.6980    -0.0680 ce         1 7VR       0.427800
      6 CAY          6.8610    -0.6760    -0.2290 ca         1 7VR      -0.180900
      7 CAI          6.2170    -1.7790    -0.8230 ca         1 7VR      -0.043000
      8 CAK          4.8210    -1.7840    -0.9860 ca         1 7VR      -0.182500
      9 CAH          6.0830     0.4230     0.2000 ca         1 7VR      -0.043000
     10 CAJ          4.6870     0.4150     0.0360 ca         1 7VR      -0.182500
     11 CAZ          4.0500    -0.6930    -0.5600 ca         1 7VR       0.162100
     12 OAW          2.6840    -0.7570    -0.7470 os         1 7VR      -0.347100
     13 CAP          1.8070     0.3080    -0.3450 c3         1 7VR       0.165600
     14 CAN          0.3690    -0.1100    -0.7080 c3         1 7VR      -0.081400
     15 CAM         -0.6830     0.9560    -0.3270 c3         1 7VR      -0.072400
     16 CAO         -2.1240     0.5380    -0.6900 c3         1 7VR      -0.098400
     17 CAQ         -3.1730     1.6020    -0.3090 c3         1 7VR       0.126000
     18 NBB         -4.5450     1.1940    -0.6650 n          1 7VR      -0.426800
     19 CAX         -5.4200     0.6590     0.2650 c          1 7VR       0.623000
     20 OAB         -5.1480     0.4550     1.4400 o          1 7VR      -0.560000
     21 CAR         -5.1400     1.3260    -2.0060 c5         1 7VR       0.091000
     22 CAS         -6.5600     0.6790    -1.8220 c5         1 7VR       0.083000
     23 NBC         -6.6300     0.3810    -0.3710 n          1 7VR      -0.236400
     24 CBA         -7.8270    -0.1290     0.2500 ca         1 7VR       0.044000
     25 CAF         -8.0960     0.0360     1.6230 ca         1 7VR      -0.213000
     26 CAD         -9.1950    -0.6150     2.2050 ca         1 7VR       0.355400
     27 NAU        -10.0040    -1.4510     1.5180 nb         1 7VR      -0.683000
     28 CAE         -9.7150    -1.6660     0.2160 ca         1 7VR       0.355400
     29 CAG         -8.6360    -1.0520    -0.4390 ca         1 7VR      -0.213000
     30 HAA1        13.0740     1.7870     1.6450 hc         1 7VR       0.043700
     31 HAA2        12.7550     0.0440     1.7770 hc         1 7VR       0.043700
     32 HAA3        12.9390     0.8000     0.1740 hc         1 7VR       0.043700
     33 HAL1        10.6640     1.3810     2.1680 h1         1 7VR       0.036700
     34 HAL2        10.8470     2.1370     0.5640 h1         1 7VR       0.036700
     35 HAC          8.8670    -1.5900    -0.4290 h4         1 7VR       0.002800
     36 HAI          6.7980    -2.6360    -1.1610 ha         1 7VR       0.122000
     37 HAH          6.5550     1.2890     0.6630 ha         1 7VR       0.122000
     38 HAK          4.3340    -2.6400    -1.4460 ha         1 7VR       0.123500
     39 HAJ          4.1190     1.2760     0.3770 ha         1 7VR       0.123500
     40 HAP1         1.8760     0.4810     0.7370 h1         1 7VR       0.036200
     41 HAP2         2.0610     1.2390    -0.8690 h1         1 7VR       0.036200
     42 HAN1         0.3150    -0.3020    -1.7870 hc         1 7VR       0.057700
     43 HAN2         0.1320    -1.0520    -0.1980 hc         1 7VR       0.057700
     44 HAM1        -0.6240     1.1500     0.7520 hc         1 7VR       0.041700
     45 HAM2        -0.4410     1.8980    -0.8350 hc         1 7VR       0.041700
     46 HAO1        -2.1850     0.3450    -1.7680 hc         1 7VR       0.050700
     47 HAO2        -2.3690    -0.4020    -0.1800 hc         1 7VR       0.050700
     48 HAQ1        -3.1130     1.8060     0.7680 h1         1 7VR       0.057700
     49 HAQ2        -2.9420     2.5380    -0.8330 h1         1 7VR       0.057700
     50 HAR1        -5.2160     2.3810    -2.2990 h1         1 7VR       0.053700
     51 HAR2        -4.5490     0.7950    -2.7640 h1         1 7VR       0.053700
     52 HAS1        -7.3590     1.3660    -2.1270 h1         1 7VR       0.059700
     53 HAS2        -6.6450    -0.2390    -2.4160 h1         1 7VR       0.059700
     54 HAF         -7.4910     0.6870     2.2440 ha         1 7VR       0.136000
     55 HAG         -8.4480    -1.3020    -1.4780 ha         1 7VR       0.136000
     56 HAD         -9.4300    -0.4700     3.2580 h4         1 7VR       0.017100
     57 HAE        -10.3610    -2.3650    -0.3150 h4         1 7VR       0.017100
@<TRIPOS>BOND
     1     1     2 1   
     2     1    30 1   
     3     1    31 1   
     4     1    32 1   
     5     2     3 1   
     6     2    33 1   
     7     2    34 1   
     8     3     4 1   
     9     4     5 2   
    10     5     6 1   
    11     5    35 1   
    12     6     7 ar  
    13     6     9 ar  
    14     7     8 ar  
    15     7    36 1   
    16     8    11 ar  
    17     8    38 1   
    18     9    10 ar  
    19     9    37 1   
    20    10    11 ar  
    21    10    39 1   
    22    11    12 1   
    23    12    13 1   
    24    13    14 1   
    25    13    40 1   
    26    13    41 1   
    27    14    15 1   
    28    14    42 1   
    29    14    43 1   
    30    15    16 1   
    31    15    44 1   
    32    15    45 1   
    33    16    17 1   
    34    16    46 1   
    35    16    47 1   
    36    17    18 1   
    37    17    48 1   
    38    17    49 1   
    39    18    19 1   
    40    18    21 1   
    41    19    20 2   
    42    19    23 1   
    43    21    22 1   
    44    21    50 1   
    45    21    51 1   
    46    22    23 1   
    47    22    52 1   
    48    22    53 1   
    49    23    24 1   
    50    24    25 ar  
    51    24    29 ar  
    52    25    26 ar  
    53    25    54 1   
    54    26    27 ar  
    55    26    56 1   
    56    27    28 ar  
    57    28    29 ar  
    58    28    57 1   
    59    29    55 1   
@<TRIPOS>SUBSTRUCTURE
     1 7VR         1 TEMP              0 ****  ****    0 ROOT
