@<TRIPOS>MOLECULE
7VS
   21    22     1     0     0
SMALL
No Charge or Current Charge


@<TRIPOS>ATOM
      1 N01          3.4230     1.1770    -0.1650 nv         1 7VS      -0.696300
      2 N02          2.0100     1.2830    -0.1520 n2         1 7VS      -0.508400
      3 C03          1.2350     0.2120    -0.1140 cc         1 7VS       0.489200
      4 C04          1.7470    -1.1240    -0.1390 cc         1 7VS      -0.407600
      5 C05          0.9610    -2.2580    -0.0950 cd         1 7VS       0.048000
      6 N06         -0.4370    -2.0990    -0.0130 na         1 7VS      -0.815000
      7 C07         -0.9710    -0.8060    -0.0060 ca         1 7VS       0.308000
      8 C08         -2.3730    -0.7040     0.0560 ca         1 7VS      -0.178000
      9 C09         -3.0070     0.5490     0.0720 ca         1 7VS      -0.063000
     10 C10         -2.2330     1.7160     0.0270 ca         1 7VS      -0.154000
     11 C11         -0.8340     1.6270    -0.0340 ca         1 7VS      -0.040000
     12 C12         -0.2000     0.3610    -0.0520 ca         1 7VS      -0.165900
     13 H1           3.9480     2.0370     0.0180 hn         1 7VS       0.407000
     14 H2           3.8220     0.2940     0.1620 hn         1 7VS       0.407000
     15 H4           2.8160    -1.2720    -0.2070 ha         1 7VS       0.198000
     16 H5           1.3630    -3.2740    -0.1170 h4         1 7VS       0.192000
     17 H6          -2.9820    -1.6040     0.0920 ha         1 7VS       0.111000
     18 H7          -4.0920     0.6130     0.1200 ha         1 7VS       0.113000
     19 H8          -2.7170     2.6910     0.0400 ha         1 7VS       0.117000
     20 H9          -0.2500     2.5450    -0.0690 ha         1 7VS       0.136000
     21 H3          -1.0590    -2.9080     0.0310 hn         1 7VS       0.502000
@<TRIPOS>BOND
     1     1     2 1   
     2     1    13 1   
     3     1    14 1   
     4     2     3 2   
     5     3     4 1   
     6     3    12 1   
     7     4     5 2   
     8     4    15 1   
     9     5     6 1   
    10     5    16 1   
    11     6     7 1   
    12     6    21 1   
    13     7     8 ar  
    14     7    12 ar  
    15     8     9 ar  
    16     8    17 1   
    17     9    10 ar  
    18     9    18 1   
    19    10    11 ar  
    20    10    19 1   
    21    11    12 ar  
    22    11    20 1   
@<TRIPOS>SUBSTRUCTURE
     1 7VS         1 TEMP              0 ****  ****    0 ROOT
