@<TRIPOS>MOLECULE
7VS
   21    22     1     0     0
SMALL
abcg2


@<TRIPOS>ATOM
      1 N01          3.3620     1.1400    -0.2440 nv         1 7VS      -0.696300
      2 N02          1.9900     1.2780    -0.1500 n2         1 7VS      -0.508400
      3 C03          1.2830     0.2050    -0.1330 cc         1 7VS       0.489200
      4 C04          1.7830    -1.1560    -0.1760 cc         1 7VS      -0.407600
      5 C05          0.9350    -2.2050    -0.1160 cd         1 7VS       0.048000
      6 N06         -0.4060    -2.0550    -0.0150 na         1 7VS      -0.815000
      7 C07         -0.9910    -0.8090     0.0010 ca         1 7VS       0.308000
      8 C08         -2.3830    -0.6950     0.0770 ca         1 7VS      -0.178000
      9 C09         -2.9740     0.5510     0.0860 ca         1 7VS      -0.063000
     10 C10         -2.1870     1.7010     0.0220 ca         1 7VS      -0.154000
     11 C11         -0.8130     1.5860    -0.0500 ca         1 7VS      -0.040000
     12 C12         -0.1840     0.3370    -0.0630 ca         1 7VS      -0.165900
     13 H1           3.7760     2.0200     0.0280 hn         1 7VS       0.407000
     14 H2           3.7350     0.4290     0.3790 hn         1 7VS       0.407000
     15 H4           2.8370    -1.3630    -0.2810 ha         1 7VS       0.198000
     16 H5           1.2850    -3.2270    -0.1520 h4         1 7VS       0.192000
     17 H6          -2.9900    -1.5900     0.1270 ha         1 7VS       0.111000
     18 H7          -4.0520     0.6300     0.1440 ha         1 7VS       0.113000
     19 H8          -2.6490     2.6790     0.0310 ha         1 7VS       0.117000
     20 H9          -0.1950     2.4730    -0.0960 ha         1 7VS       0.136000
     21 H3          -0.9920    -2.8720     0.0370 hn         1 7VS       0.502000
@<TRIPOS>BOND
     1     1     2 1   
     2     1    13 1   
     3     1    14 1   
     4     2     3 2   
     5     3     4 1   
     6     3    12 1   
     7     4     5 2   
     8     4    15 1   
     9     5     6 1   
    10     5    16 1   
    11     6     7 1   
    12     6    21 1   
    13     7     8 ar  
    14     7    12 ar  
    15     8     9 ar  
    16     8    17 1   
    17     9    10 ar  
    18     9    18 1   
    19    10    11 ar  
    20    10    19 1   
    21    11    12 ar  
    22    11    20 1   
@<TRIPOS>SUBSTRUCTURE
     1 7VS         1 TEMP              0 ****  ****    0 ROOT
