@<TRIPOS>MOLECULE
7VT
   44    46     1     0     0
SMALL
No Charge or Current Charge


@<TRIPOS>ATOM
      1 N1         -10.2850   -32.4070    20.5640 nu         1 7VT      -0.881100
      2 C4          -8.6380   -30.0190    22.9950 ca         1 7VT       0.068000
      3 C5          -9.8020   -30.3340    22.2740 ca         1 7VT      -0.389500
      4 C6          -9.9740   -33.4650    21.4040 ca         1 7VT       0.331000
      5 C7         -10.9240   -34.4680    21.6050 ca         1 7VT      -0.213000
      6 C8         -10.6210   -35.5310    22.4650 ca         1 7VT       0.365900
      7 C13         -6.4490   -30.0780    25.1200 c2         1 7VT      -0.242200
      8 C15         -6.4050   -27.9700    26.9930 c6         1 7VT       0.155600
      9 O2         -10.6690   -30.1170    19.7760 o          1 7VT      -0.525500
     10 S           -9.6930   -30.8430    20.5880 sy         1 7VT       1.187600
     11 O1          -8.2900   -30.9670    20.1840 o          1 7VT      -0.525500
     12 C11         -8.7470   -33.5720    22.0700 ca         1 7VT      -0.210000
     13 C9          -8.5230   -34.6670    22.9140 ca         1 7VT       0.382300
     14 N2          -9.4420   -35.6340    23.1160 nb         1 7VT      -0.684000
     15 C1         -11.0470   -30.2710    22.8980 ca         1 7VT       0.672300
     16 O          -12.1770   -30.6240    22.1990 os         1 7VT      -0.470300
     17 C          -13.4830   -30.5850    22.8090 c3         1 7VT       0.165900
     18 C3          -8.7670   -29.6380    24.3380 ca         1 7VT      -0.155800
     19 C2         -10.0630   -29.5920    24.8830 ca         1 7VT       0.447900
     20 N          -11.1770   -29.9020    24.1870 nb         1 7VT      -0.768000
     21 C12         -7.5610   -29.3060    25.1500 ce         1 7VT      -0.049400
     22 C16         -7.5860   -28.0250    25.9970 c6         1 7VT      -0.073200
     23 O3          -5.1890   -28.3840    26.3390 os         1 7VT      -0.441000
     24 C14         -5.1950   -29.7670    25.9260 c6         1 7VT       0.186800
     25 H1         -11.2580   -32.3040    20.3120 hn         1 7VT       0.507000
     26 H3         -11.8890   -34.4340    21.1100 ha         1 7VT       0.125000
     27 H4         -11.3450   -36.3250    22.6420 h4         1 7VT       0.019100
     28 H8          -6.4090   -30.9860    24.5200 ha         1 7VT       0.182000
     29 H9          -6.2820   -26.9480    27.3790 h1         1 7VT       0.048700
     30 H10         -6.5980   -28.6370    27.8470 h1         1 7VT       0.048700
     31 H11         -7.9680   -32.8320    21.9440 ha         1 7VT       0.147000
     32 H12        -14.2500   -30.8980    22.0900 h1         1 7VT       0.056033
     33 H13        -13.5330   -31.2600    23.6730 h1         1 7VT       0.056033
     34 H14        -13.7290   -29.5690    23.1450 h1         1 7VT       0.056033
     35 H15        -10.2190   -29.3150    25.9250 h4         1 7VT       0.025100
     36 H16         -7.5370   -27.1530    25.3310 hc         1 7VT       0.058700
     37 H17         -8.5260   -27.9350    26.5560 hc         1 7VT       0.058700
     38 H18         -5.1550   -30.4090    26.8180 h1         1 7VT       0.056200
     39 H19         -4.2950   -29.9630    25.3250 h1         1 7VT       0.056200
     40 C10         -7.2140   -34.8100    23.6650 c3         1 7VT      -0.148400
     41 H2          -7.6540   -30.0600    22.5300 ha         1 7VT       0.151000
     42 H5          -7.0530   -35.8380    24.0120 hc         1 7VT       0.054033
     43 H6          -6.3650   -34.5410    23.0260 hc         1 7VT       0.054033
     44 H7          -7.1970   -34.1520    24.5410 hc         1 7VT       0.054033
@<TRIPOS>BOND
     1     1     4 1   
     2     1    10 1   
     3     1    25 1   
     4     2     3 ar  
     5     2    18 ar  
     6     2    41 1   
     7     3    10 1   
     8     3    15 ar  
     9     4     5 ar  
    10     4    12 ar  
    11     5     6 ar  
    12     5    26 1   
    13     6    14 ar  
    14     6    27 1   
    15     7    21 2   
    16     7    24 1   
    17     7    28 1   
    18     8    22 1   
    19     8    23 1   
    20     8    29 1   
    21     8    30 1   
    22     9    10 2   
    23    10    11 2   
    24    12    13 ar  
    25    12    31 1   
    26    13    14 ar  
    27    13    40 1   
    28    15    16 1   
    29    15    20 ar  
    30    16    17 1   
    31    17    32 1   
    32    17    33 1   
    33    17    34 1   
    34    18    19 ar  
    35    18    21 1   
    36    19    20 ar  
    37    19    35 1   
    38    21    22 1   
    39    22    36 1   
    40    22    37 1   
    41    23    24 1   
    42    24    38 1   
    43    24    39 1   
    44    40    42 1   
    45    40    43 1   
    46    40    44 1   
@<TRIPOS>SUBSTRUCTURE
     1 7VT         1 TEMP              0 ****  ****    0 ROOT
