@<TRIPOS>MOLECULE
7VT
   44    46     1     0     0
SMALL
abcg2


@<TRIPOS>ATOM
      1 N1         -10.2770   -32.4360    20.5080 nu         1 7VT      -0.881100
      2 C4          -8.6770   -30.0800    22.9450 ca         1 7VT       0.068000
      3 C5          -9.7990   -30.3850    22.2050 ca         1 7VT      -0.389500
      4 C6          -9.9600   -33.3810    21.4880 ca         1 7VT       0.331000
      5 C7         -10.9570   -34.2430    21.9440 ca         1 7VT      -0.213000
      6 C8         -10.6250   -35.1690    22.9120 ca         1 7VT       0.365900
      7 C13         -6.5020   -30.1010    24.9860 c2         1 7VT      -0.242200
      8 C15         -6.5210   -28.3290    27.0640 c6         1 7VT       0.155600
      9 O2         -10.5010   -30.1080    19.6610 o          1 7VT      -0.525500
     10 S           -9.6420   -30.8950    20.5210 sy         1 7VT       1.187600
     11 O1          -8.2250   -30.9790    20.2260 o          1 7VT      -0.525500
     12 C11         -8.6870   -33.5090    22.0290 ca         1 7VT      -0.210000
     13 C9          -8.4640   -34.4620    23.0200 ca         1 7VT       0.382300
     14 N2          -9.4160   -35.2830    23.4540 nb         1 7VT      -0.684000
     15 C1         -11.0600   -30.2990    22.8180 ca         1 7VT       0.672300
     16 O          -12.1170   -30.6380    22.1020 os         1 7VT      -0.470300
     17 C          -13.4020   -30.6040    22.7200 c3         1 7VT       0.165900
     18 C3          -8.8070   -29.6890    24.2790 ca         1 7VT      -0.155800
     19 C2         -10.1060   -29.6090    24.7670 ca         1 7VT       0.447900
     20 N          -11.1930   -29.9100    24.0650 nb         1 7VT      -0.768000
     21 C12         -7.6280   -29.3950    25.1100 ce         1 7VT      -0.049400
     22 C16         -7.6990   -28.2690    26.1060 c6         1 7VT      -0.073200
     23 O3          -5.3100   -28.5170    26.3680 os         1 7VT      -0.441000
     24 C14         -5.2550   -29.7710    25.7420 c6         1 7VT       0.186800
     25 H1         -11.2390   -32.4510    20.1860 hn         1 7VT       0.507000
     26 H3         -11.9670   -34.1880    21.5600 ha         1 7VT       0.125000
     27 H4         -11.3840   -35.8520    23.2780 h4         1 7VT       0.019100
     28 H8          -6.4470   -30.9590    24.3230 ha         1 7VT       0.182000
     29 H9          -6.4310   -27.3980    27.6230 h1         1 7VT       0.048700
     30 H10         -6.6790   -29.1380    27.7900 h1         1 7VT       0.048700
     31 H11         -7.8600   -32.8980    21.6980 ha         1 7VT       0.147000
     32 H12        -14.1000   -30.9390    21.9590 h1         1 7VT       0.056033
     33 H13        -13.4470   -31.2730    23.5780 h1         1 7VT       0.056033
     34 H14        -13.6640   -29.5950    23.0370 h1         1 7VT       0.056033
     35 H15        -10.2890   -29.3030    25.7910 h4         1 7VT       0.025100
     36 H16         -7.7290   -27.3110    25.5780 hc         1 7VT       0.058700
     37 H17         -8.6210   -28.3200    26.6910 hc         1 7VT       0.058700
     38 H18         -5.0470   -30.5710    26.4700 h1         1 7VT       0.056200
     39 H19         -4.4050   -29.7520    25.0540 h1         1 7VT       0.056200
     40 C10         -7.1040   -34.5810    23.6390 c3         1 7VT      -0.148400
     41 H2          -7.6960   -30.1340    22.4900 ha         1 7VT       0.151000
     42 H5          -7.0620   -35.4250    24.3230 hc         1 7VT       0.054033
     43 H6          -6.3340   -34.7120    22.8780 hc         1 7VT       0.054033
     44 H7          -6.8510   -33.6760    24.1950 hc         1 7VT       0.054033
@<TRIPOS>BOND
     1     1     4 1   
     2     1    10 1   
     3     1    25 1   
     4     2     3 ar  
     5     2    18 ar  
     6     2    41 1   
     7     3    10 1   
     8     3    15 ar  
     9     4     5 ar  
    10     4    12 ar  
    11     5     6 ar  
    12     5    26 1   
    13     6    14 ar  
    14     6    27 1   
    15     7    21 2   
    16     7    24 1   
    17     7    28 1   
    18     8    22 1   
    19     8    23 1   
    20     8    29 1   
    21     8    30 1   
    22     9    10 2   
    23    10    11 2   
    24    12    13 ar  
    25    12    31 1   
    26    13    14 ar  
    27    13    40 1   
    28    15    16 1   
    29    15    20 ar  
    30    16    17 1   
    31    17    32 1   
    32    17    33 1   
    33    17    34 1   
    34    18    19 ar  
    35    18    21 1   
    36    19    20 ar  
    37    19    35 1   
    38    21    22 1   
    39    22    36 1   
    40    22    37 1   
    41    23    24 1   
    42    24    38 1   
    43    24    39 1   
    44    40    42 1   
    45    40    43 1   
    46    40    44 1   
@<TRIPOS>SUBSTRUCTURE
     1 7VT         1 TEMP              0 ****  ****    0 ROOT
