@<TRIPOS>MOLECULE
7VU
   31    31     1     0     0
SMALL
bcc


@<TRIPOS>ATOM
      1 N          -18.1740    -4.2380    46.7720 n7         1 7VU      -0.803200
      2 C          -16.1370    -3.4030    45.6560 c          1 7VU       0.936600
      3 O          -16.1950    -2.3850    44.9380 o          1 7VU      -0.830800
      4 CA         -17.3350    -4.3920    45.5910 c3         1 7VU       0.047500
      5 CB         -18.0960    -4.3070    44.2530 c3         1 7VU      -0.066100
      6 CG         -19.2010    -5.3190    44.1670 ca         1 7VU      -0.050300
      7 CD1        -18.9350    -6.6510    43.8530 ca         1 7VU      -0.135000
      8 CD2        -20.5210    -4.9770    44.4520 ca         1 7VU      -0.135000
      9 CE1        -19.9480    -7.5980    43.8150 ca         1 7VU      -0.131000
     10 CE2        -21.5360    -5.9240    44.4140 ca         1 7VU      -0.131000
     11 CZ         -21.2690    -7.2520    44.0920 ca         1 7VU      -0.109300
     12 CH         -22.3700    -8.2700    44.0150 c3         1 7VU      -0.034800
     13 C1         -18.7790    -2.9280    46.9880 c3         1 7VU       0.185800
     14 C2         -18.0950    -2.1510    48.1050 c3         1 7VU      -0.082100
     15 H          -18.8950    -4.9460    46.7520 hn         1 7VU       0.326800
     16 H3         -16.9170    -5.4040    45.6550 h1         1 7VU       0.040700
     17 H4         -17.3830    -4.4730    43.4400 hc         1 7VU       0.057700
     18 H5         -18.5000    -3.3040    44.1100 hc         1 7VU       0.057700
     19 H6         -17.9170    -6.9530    43.6330 ha         1 7VU       0.130500
     20 H7         -20.7620    -3.9500    44.7020 ha         1 7VU       0.130500
     21 H8         -19.7070    -8.6260    43.5670 ha         1 7VU       0.113000
     22 H9         -22.5530    -5.6240    44.6390 ha         1 7VU       0.113000
     23 H10        -22.7620    -8.3510    42.9980 hc         1 7VU       0.029700
     24 H11        -22.0200    -9.2610    44.3030 hc         1 7VU       0.029700
     25 H12        -23.2060    -8.0050    44.6620 hc         1 7VU       0.029700
     26 H13        -18.7840    -2.3210    46.0760 h1         1 7VU       0.011200
     27 H14        -19.8300    -3.0680    47.2520 h1         1 7VU       0.011200
     28 H15        -18.5750    -1.1820    48.2560 hc         1 7VU       0.029700
     29 H16        -18.1460    -2.7000    49.0460 hc         1 7VU       0.029700
     30 H17        -17.0440    -1.9690    47.8820 hc         1 7VU       0.029700
     31 OXT        -15.2160    -3.7140    46.4370 o          1 7VU      -0.830800
@<TRIPOS>BOND
     1     1     4 1   
     2     1    13 1   
     3     1    15 1   
     4     2     3 1   
     5     2     4 1   
     6     2    31 1   
     7     4     5 1   
     8     4    16 1   
     9     5     6 1   
    10     5    17 1   
    11     5    18 1   
    12     6     7 ar  
    13     6     8 ar  
    14     7     9 ar  
    15     7    19 1   
    16     8    10 ar  
    17     8    20 1   
    18     9    11 ar  
    19     9    21 1   
    20    10    11 ar  
    21    10    22 1   
    22    11    12 1   
    23    12    23 1   
    24    12    24 1   
    25    12    25 1   
    26    13    14 1   
    27    13    26 1   
    28    13    27 1   
    29    14    28 1   
    30    14    29 1   
    31    14    30 1   
@<TRIPOS>SUBSTRUCTURE
     1 7VU         1 TEMP              0 ****  ****    0 ROOT
