@<TRIPOS>MOLECULE
7VU
   31    31     1     0     0
SMALL
No Charge or Current Charge


@<TRIPOS>ATOM
      1 N          -18.2560    -4.2650    46.8130 n7         1 7VU      -0.858400
      2 C          -16.0620    -3.3820    45.6370 c          1 7VU       0.726000
      3 O          -16.1070    -2.3390    44.9940 o          1 7VU      -0.725500
      4 CA         -17.3160    -4.3560    45.6310 c3         1 7VU       0.047500
      5 CB         -18.1230    -4.2810    44.3010 c3         1 7VU      -0.066100
      6 CG         -19.2330    -5.3250    44.2090 ca         1 7VU      -0.050300
      7 CD1        -18.9160    -6.6800    43.9940 ca         1 7VU      -0.117000
      8 CD2        -20.5830    -4.9470    44.3370 ca         1 7VU      -0.117000
      9 CE1        -19.9350    -7.6440    43.9110 ca         1 7VU      -0.113000
     10 CE2        -21.6020    -5.9110    44.2540 ca         1 7VU      -0.113000
     11 CZ         -21.2840    -7.2660    44.0430 ca         1 7VU      -0.109300
     12 CH         -22.3870    -8.3090    43.9510 c3         1 7VU      -0.034800
     13 C1         -18.8550    -2.9470    47.1200 c3         1 7VU       0.185800
     14 C2         -17.9820    -2.1300    48.0930 c3         1 7VU      -0.082100
     15 H          -19.0310    -4.9040    46.6040 hn         1 7VU       0.382000
     16 H3         -16.8780    -5.3630    45.6460 h1         1 7VU       0.040700
     17 H4         -17.4270    -4.4230    43.4660 hc         1 7VU       0.057700
     18 H5         -18.5360    -3.2730    44.1730 hc         1 7VU       0.057700
     19 H6         -17.8770    -6.9870    43.8910 ha         1 7VU       0.112500
     20 H7         -20.8450    -3.9040    44.5020 ha         1 7VU       0.112500
     21 H8         -19.6750    -8.6870    43.7440 ha         1 7VU       0.095000
     22 H9         -22.6410    -5.6040    44.3550 ha         1 7VU       0.095000
     23 H10        -22.7250    -8.4280    42.9150 hc         1 7VU       0.029700
     24 H11        -22.0430    -9.2870    44.3060 hc         1 7VU       0.029700
     25 H12        -23.2570    -8.0260    44.5570 hc         1 7VU       0.029700
     26 H13        -19.0450    -2.3670    46.2080 h1         1 7VU       0.011200
     27 H14        -19.8260    -3.1070    47.6090 h1         1 7VU       0.011200
     28 H15        -18.4980    -1.2040    48.3700 hc         1 7VU       0.029700
     29 H16        -17.7880    -2.6980    49.0110 hc         1 7VU       0.029700
     30 H17        -17.0220    -1.8560    47.6440 hc         1 7VU       0.029700
     31 OXT        -15.0530    -3.7460    46.2310 o          1 7VU      -0.725500
@<TRIPOS>BOND
     1     1     4 1   
     2     1    13 1   
     3     1    15 1   
     4     2     3 1   
     5     2     4 1   
     6     2    31 1   
     7     4     5 1   
     8     4    16 1   
     9     5     6 1   
    10     5    17 1   
    11     5    18 1   
    12     6     7 ar  
    13     6     8 ar  
    14     7     9 ar  
    15     7    19 1   
    16     8    10 ar  
    17     8    20 1   
    18     9    11 ar  
    19     9    21 1   
    20    10    11 ar  
    21    10    22 1   
    22    11    12 1   
    23    12    23 1   
    24    12    24 1   
    25    12    25 1   
    26    13    14 1   
    27    13    26 1   
    28    13    27 1   
    29    14    28 1   
    30    14    29 1   
    31    14    30 1   
@<TRIPOS>SUBSTRUCTURE
     1 7VU         1 TEMP              0 ****  ****    0 ROOT
