@<TRIPOS>MOLECULE
7VV
   47    49     1     0     0
SMALL
abcg2


@<TRIPOS>ATOM
      1 C1           4.6290     0.9320     0.3850 ca         1 7VV      -0.172000
      2 C2           4.2580    -0.3800     0.6680 ca         1 7VV       0.133100
      3 C3           3.2220    -0.9700    -0.0560 ca         1 7VV      -0.122000
      4 C11         -1.0030    -1.6950    -1.7440 c6         1 7VV      -0.078400
      5 C12         -2.2410    -1.8730    -0.8690 c6         1 7VV       0.007900
      6 C13         -2.6150    -0.5890    -0.2090 cc         1 7VV      -0.200300
      7 C15         -3.7400    -0.1370     0.4130 cd         1 7VV       0.271300
      8 C17         -2.2990     1.4350     0.5920 cc         1 7VV       0.611400
      9 C18         -5.0400    -0.8530     0.6030 c3         1 7VV      -0.074000
     10 C19         -5.1950    -1.3430     2.0440 c3         1 7VV      -0.081600
     11 C20         -6.2260     0.0230     0.2030 c3         1 7VV      -0.081600
     12 C23          5.8920    -0.5970     2.3730 c3         1 7VV       0.147900
     13 C4           2.5410    -0.2840    -1.0530 ca         1 7VV      -0.082300
     14 C5           2.9390     1.0220    -1.3080 ca         1 7VV       0.127000
     15 C6           3.9600     1.6310    -0.6120 ca         1 7VV      -0.109000
     16 F7           2.3030     1.7270    -2.2670 f          1 7VV      -0.186000
     17 C8           1.4050    -0.9450    -1.7840 c3         1 7VV      -0.026100
     18 C9          -0.3540     0.4480    -0.6370 c6         1 7VV       0.077600
     19 C10          0.1000    -0.9660    -0.9820 c6         1 7VV      -0.070700
     20 N14         -1.6860     0.4290    -0.0710 na         1 7VV      -0.183500
     21 N16         -3.5310     1.1320     0.9080 nd         1 7VV      -0.721000
     22 O22          4.8380    -1.1500     1.6110 os         1 7VV      -0.338100
     23 H24          5.4260     1.4290     0.9200 ha         1 7VV       0.123000
     24 H25          2.9420    -1.9940     0.1670 ha         1 7VV       0.131000
     25 H33         -0.6440    -2.6730    -2.0730 hc         1 7VV       0.047700
     26 H32         -1.2560    -1.1310    -2.6480 hc         1 7VV       0.047700
     27 H35         -3.0760    -2.2550    -1.4600 hc         1 7VV       0.054200
     28 H34         -2.0320    -2.6380    -0.1130 hc         1 7VV       0.054200
     29 H36         -5.0300    -1.7300    -0.0520 hc         1 7VV       0.038700
     30 H39         -5.1810    -0.5020     2.7400 hc         1 7VV       0.034700
     31 H38         -6.1390    -1.8750     2.1790 hc         1 7VV       0.034700
     32 H37         -4.3860    -2.0210     2.3210 hc         1 7VV       0.034700
     33 H42         -6.1400     0.3680    -0.8290 hc         1 7VV       0.034700
     34 H41         -7.1640    -0.5290     0.2930 hc         1 7VV       0.034700
     35 H40         -6.2920     0.9020     0.8450 hc         1 7VV       0.034700
     36 H47          6.2120    -1.3710     3.0670 h1         1 7VV       0.042700
     37 H46          6.7420    -0.3100     1.7480 h1         1 7VV       0.042700
     38 H45          5.5660     0.2750     2.9460 h1         1 7VV       0.042700
     39 H26          4.2400     2.6510    -0.8410 ha         1 7VV       0.131000
     40 H28          1.2290    -0.4660    -2.7490 hc         1 7VV       0.059200
     41 H27          1.6850    -1.9790    -2.0020 hc         1 7VV       0.059200
     42 H30          0.3230     0.9080     0.0850 h1         1 7VV       0.060200
     43 H29         -0.3460     1.0680    -1.5400 h1         1 7VV       0.060200
     44 H31          0.2840    -1.5040    -0.0440 hc         1 7VV       0.065700
     45 H43         -1.1150     3.0210     0.1770 hn         1 7VV       0.446000
     46 H44         -2.2520     3.2700     1.3460 hn         1 7VV       0.446000
     47 N21         -1.6280     2.5920     0.9340 nv         1 7VV      -1.008900
@<TRIPOS>BOND
     1     1     2 ar  
     2     1    15 ar  
     3     1    23 1   
     4     2     3 ar  
     5     2    22 1   
     6     3    13 ar  
     7     3    24 1   
     8     4     5 1   
     9     4    19 1   
    10     4    25 1   
    11     4    26 1   
    12     5     6 1   
    13     5    27 1   
    14     5    28 1   
    15     6     7 2   
    16     6    20 1   
    17     7     9 1   
    18     7    21 1   
    19     8    20 1   
    20     8    21 2   
    21     8    47 1   
    22     9    10 1   
    23     9    11 1   
    24     9    29 1   
    25    10    30 1   
    26    10    31 1   
    27    10    32 1   
    28    11    33 1   
    29    11    34 1   
    30    11    35 1   
    31    12    22 1   
    32    12    36 1   
    33    12    37 1   
    34    12    38 1   
    35    13    14 ar  
    36    13    17 1   
    37    14    15 ar  
    38    14    16 1   
    39    15    39 1   
    40    17    19 1   
    41    17    40 1   
    42    17    41 1   
    43    18    19 1   
    44    18    20 1   
    45    18    42 1   
    46    18    43 1   
    47    19    44 1   
    48    45    47 1   
    49    46    47 1   
@<TRIPOS>SUBSTRUCTURE
     1 7VV         1 TEMP              0 ****  ****    0 ROOT
