@<TRIPOS>MOLECULE
7VV
   47    49     1     0     0
SMALL
No Charge or Current Charge


@<TRIPOS>ATOM
      1 C1           4.7400     0.9120     0.3430 ca         1 7VV      -0.172000
      2 C2           4.3570    -0.4210     0.6090 ca         1 7VV       0.133100
      3 C3           3.2810    -0.9890    -0.0950 ca         1 7VV      -0.122000
      4 C11         -1.0450    -1.6810    -1.7270 c6         1 7VV      -0.078400
      5 C12         -2.3180    -1.8370    -0.8490 c6         1 7VV       0.007900
      6 C13         -2.6140    -0.5380    -0.1390 cc         1 7VV      -0.200300
      7 C15         -3.7600    -0.1320     0.5130 cd         1 7VV       0.271300
      8 C17         -2.3740     1.4730     0.7040 cc         1 7VV       0.611400
      9 C18         -5.0540    -0.9060     0.6810 c3         1 7VV      -0.074000
     10 C19         -5.3870    -1.1580     2.1690 c3         1 7VV      -0.081600
     11 C20         -6.2270    -0.2280    -0.0630 c3         1 7VV      -0.081600
     12 C23          6.1100    -0.7200     2.3220 c3         1 7VV       0.147900
     13 C4           2.5780    -0.2470    -1.0660 ca         1 7VV      -0.082300
     14 C5           2.9700     1.0850    -1.3230 ca         1 7VV       0.127000
     15 C6           4.0430     1.6600    -0.6230 ca         1 7VV      -0.109000
     16 F7           2.3120     1.8310    -2.2390 f          1 7VV      -0.186000
     17 C8           1.4080    -0.8950    -1.8050 c3         1 7VV      -0.026100
     18 C9          -0.3630     0.5180    -0.5760 c6         1 7VV       0.077600
     19 C10          0.0920    -0.9210    -0.9750 c6         1 7VV      -0.070700
     20 N14         -1.7230     0.4970    -0.0040 na         1 7VV      -0.183500
     21 N16         -3.5910     1.1440     1.0340 nd         1 7VV      -0.721000
     22 O22          4.9990    -1.2050     1.5460 os         1 7VV      -0.338100
     23 H24          5.5660     1.3800     0.8700 ha         1 7VV       0.123000
     24 H25          2.9920    -2.0150     0.1180 ha         1 7VV       0.131000
     25 H33         -0.6990    -2.6740    -2.0440 hc         1 7VV       0.047700
     26 H32         -1.3030    -1.1350    -2.6450 hc         1 7VV       0.047700
     27 H35         -3.1630    -2.1520    -1.4760 hc         1 7VV       0.054200
     28 H34         -2.1600    -2.6380    -0.1130 hc         1 7VV       0.054200
     29 H36         -4.9250    -1.8930     0.2230 hc         1 7VV       0.038700
     30 H39         -5.5730    -0.2140     2.6960 hc         1 7VV       0.034700
     31 H38         -6.2800    -1.7860     2.2650 hc         1 7VV       0.034700
     32 H37         -4.5550    -1.6710     2.6670 hc         1 7VV       0.034700
     33 H42         -5.9840    -0.0980    -1.1250 hc         1 7VV       0.034700
     34 H41         -7.1350    -0.8390     0.0060 hc         1 7VV       0.034700
     35 H40         -6.4440     0.7590     0.3630 hc         1 7VV       0.034700
     36 H47          6.4680    -1.5030     3.0020 h1         1 7VV       0.042700
     37 H46          6.9430    -0.4290     1.6700 h1         1 7VV       0.042700
     38 H45          5.8140     0.1460     2.9260 h1         1 7VV       0.042700
     39 H26          4.3320     2.6880    -0.8300 ha         1 7VV       0.131000
     40 H28          1.2310    -0.3910    -2.7630 hc         1 7VV       0.059200
     41 H27          1.6870    -1.9220    -2.0740 hc         1 7VV       0.059200
     42 H30          0.3370     0.9470     0.1540 h1         1 7VV       0.060200
     43 H29         -0.3710     1.1650    -1.4650 h1         1 7VV       0.060200
     44 H31          0.3170    -1.4760    -0.0530 hc         1 7VV       0.065700
     45 H43         -1.0530     2.9780     0.4760 hn         1 7VV       0.446000
     46 H44         -2.5020     3.3710     1.3280 hn         1 7VV       0.446000
     47 N21         -1.8490     2.6630     1.0160 nv         1 7VV      -1.008900
@<TRIPOS>BOND
     1     1     2 ar  
     2     1    15 ar  
     3     1    23 1   
     4     2     3 ar  
     5     2    22 1   
     6     3    13 ar  
     7     3    24 1   
     8     4     5 1   
     9     4    19 1   
    10     4    25 1   
    11     4    26 1   
    12     5     6 1   
    13     5    27 1   
    14     5    28 1   
    15     6     7 2   
    16     6    20 1   
    17     7     9 1   
    18     7    21 1   
    19     8    20 1   
    20     8    21 2   
    21     8    47 1   
    22     9    10 1   
    23     9    11 1   
    24     9    29 1   
    25    10    30 1   
    26    10    31 1   
    27    10    32 1   
    28    11    33 1   
    29    11    34 1   
    30    11    35 1   
    31    12    22 1   
    32    12    36 1   
    33    12    37 1   
    34    12    38 1   
    35    13    14 ar  
    36    13    17 1   
    37    14    15 ar  
    38    14    16 1   
    39    15    39 1   
    40    17    19 1   
    41    17    40 1   
    42    17    41 1   
    43    18    19 1   
    44    18    20 1   
    45    18    42 1   
    46    18    43 1   
    47    19    44 1   
    48    45    47 1   
    49    46    47 1   
@<TRIPOS>SUBSTRUCTURE
     1 7VV         1 TEMP              0 ****  ****    0 ROOT
