@<TRIPOS>MOLECULE
7VW
   89    90     1     0     0
SMALL
abcg2


@<TRIPOS>ATOM
      1 N          -19.1340    -7.9200    16.9650 ns         1 7VW      -0.480900
      2 C          -20.2520   -13.1550    19.5230 ca         1 7VW      -0.120000
      3 O          -20.4440    -9.6430    16.4870 os         1 7VW      -0.466100
      4 C1         -19.4160   -13.9850    18.7840 ca         1 7VW      -0.101000
      5 C10        -17.0170    -7.5630    18.2230 c3         1 7VW       0.156300
      6 C11        -16.3420    -6.6580    19.2440 c3         1 7VW      -0.117100
      7 C12        -18.2130    -3.2520    17.1340 c3         1 7VW       0.041700
      8 C13        -16.7050    -2.9740    17.2300 c          1 7VW       0.577100
      9 C14        -18.9910    -2.1500    17.8560 c3         1 7VW      -0.072400
     10 C15        -20.4810    -1.9800    17.4900 c3         1 7VW      -0.050000
     11 C16        -14.6380    -2.7020    15.8900 c3         1 7VW       0.102700
     12 C17        -14.3710    -1.4800    15.0170 c3         1 7VW       0.151600
     13 C18        -14.0210    -3.9800    15.3170 c3         1 7VW      -0.072400
     14 C19        -14.0970    -5.1600    16.2800 c5         1 7VW      -0.147700
     15 C2         -19.2210   -13.7390    17.4270 ca         1 7VW      -0.120000
     16 C20        -13.2130    -5.0350    17.5310 c5         1 7VW      -0.094400
     17 C21        -12.7120    -6.4630    17.8110 c5         1 7VW       0.099000
     18 C22        -13.6550    -6.4730    15.6420 c          1 7VW       0.557000
     19 C23        -16.4310    -9.9640    18.2720 c3         1 7VW       0.187000
     20 C24        -14.9370    -9.6890    18.4420 c3         1 7VW      -0.107433
     21 C25        -16.7600   -10.2520    16.8070 c3         1 7VW      -0.107433
     22 C26        -16.8620   -11.1350    19.1460 c3         1 7VW      -0.107433
     23 C27        -20.6310    -1.5970    16.0110 c3         1 7VW      -0.086433
     24 C28        -21.0270    -0.8360    18.3570 c3         1 7VW      -0.086433
     25 C29        -21.2950    -3.2500    17.7740 c3         1 7VW      -0.086433
     26 C3         -19.8640   -12.6710    16.8140 ca         1 7VW      -0.081000
     27 C4         -20.7010   -11.8300    17.5500 ca         1 7VW      -0.129300
     28 C5         -20.8880   -12.0800    18.9080 ca         1 7VW      -0.081000
     29 C6         -21.3870   -10.6720    16.8790 c3         1 7VW       0.230900
     30 C7         -20.0760    -8.7580    17.4450 c          1 7VW       0.645100
     31 C8         -18.4050    -7.0030    17.8110 c3         1 7VW       0.041700
     32 C9         -18.2160    -5.6990    17.0410 c          1 7VW       0.585100
     33 N1         -18.4760    -4.5650    17.7080 ns         1 7VW      -0.484900
     34 N2         -16.0760    -2.8600    16.0480 ns         1 7VW      -0.494900
     35 N3         -12.8630    -7.1180    16.5180 ns         1 7VW      -0.517900
     36 O1         -20.5620    -8.7200    18.5620 o          1 7VW      -0.536000
     37 O2         -17.2200    -8.8540    18.7760 os         1 7VW      -0.467000
     38 O3         -17.8220    -5.7210    15.8750 o          1 7VW      -0.615100
     39 O5         -13.9820    -6.8840    14.5300 o          1 7VW      -0.559000
     40 O6         -12.9660    -1.2330    15.0060 oh         1 7VW      -0.664000
     41 H1         -18.7670    -8.0980    16.0440 hn         1 7VW       0.339500
     42 H3         -18.9160   -14.8180    19.2620 ha         1 7VW       0.112000
     43 H4         -16.4080    -7.6250    17.3190 h1         1 7VW       0.054700
     44 H5         -15.3830    -7.0790    19.5380 hc         1 7VW       0.048033
     45 H6         -16.1670    -5.6580    18.8450 hc         1 7VW       0.048033
     46 H7         -16.9680    -6.5690    20.1340 hc         1 7VW       0.048033
     47 H8         -18.5010    -3.2950    16.0850 h1         1 7VW       0.080700
     48 H9         -18.8950    -2.3110    18.9330 hc         1 7VW       0.058700
     49 H10        -18.4880    -1.2040    17.6420 hc         1 7VW       0.058700
     50 H11        -14.2350    -2.5060    16.8840 h1         1 7VW       0.093700
     51 H12        -14.9120    -0.6240    15.4330 h1         1 7VW       0.028700
     52 H13        -14.7420    -1.6630    14.0020 h1         1 7VW       0.028700
     53 H14        -12.9770    -3.7820    15.0680 hc         1 7VW       0.068200
     54 H15        -14.5370    -4.2320    14.3860 hc         1 7VW       0.068200
     55 H16        -15.1420    -5.3200    16.5650 hc         1 7VW       0.080700
     56 H17        -18.5720   -14.3830    16.8470 ha         1 7VW       0.114000
     57 H18        -12.3640    -4.3840    17.3140 hc         1 7VW       0.065700
     58 H19        -13.7460    -4.6200    18.3830 hc         1 7VW       0.065700
     59 H20        -13.3190    -6.9650    18.5670 h1         1 7VW       0.043700
     60 H21        -14.7040    -9.4600    19.4830 hc         1 7VW       0.044589
     61 H22        -14.3650   -10.5700    18.1440 hc         1 7VW       0.044589
     62 H23        -14.6100    -8.8570    17.8180 hc         1 7VW       0.044589
     63 H24        -17.8170   -10.4840    16.6900 hc         1 7VW       0.044589
     64 H25        -16.5120    -9.4080    16.1630 hc         1 7VW       0.044589
     65 H26        -16.1790   -11.1110    16.4650 hc         1 7VW       0.044589
     66 H27        -16.6320   -10.9300    20.1930 hc         1 7VW       0.044589
     67 H28        -17.9340   -11.3080    19.0490 hc         1 7VW       0.044589
     68 H29        -16.3390   -12.0440    18.8460 hc         1 7VW       0.044589
     69 H30        -20.0510    -0.7000    15.7790 hc         1 7VW       0.036367
     70 H31        -20.3000    -2.3980    15.3480 hc         1 7VW       0.036367
     71 H32        -21.6790    -1.3910    15.7810 hc         1 7VW       0.036367
     72 H33        -20.9430    -1.0800    19.4190 hc         1 7VW       0.036367
     73 H34        -20.4740     0.0890    18.1770 hc         1 7VW       0.036367
     74 H35        -22.0800    -0.6530    18.1330 hc         1 7VW       0.036367
     75 H36        -21.1780    -3.5680    18.8120 hc         1 7VW       0.036367
     76 H37        -22.3560    -3.0580    17.5970 hc         1 7VW       0.036367
     77 H38        -20.9910    -4.0760    17.1300 hc         1 7VW       0.036367
     78 H39        -19.7150   -12.4840    15.7570 ha         1 7VW       0.120500
     79 H40        -21.5310   -11.4280    19.4850 ha         1 7VW       0.120500
     80 H41        -22.1470   -10.2390    17.5240 h1         1 7VW       0.068200
     81 H42        -21.8400   -10.9790    15.9380 h1         1 7VW       0.068200
     82 H43        -18.9990    -6.8450    18.7100 h1         1 7VW       0.096700
     83 H44        -18.7560    -4.6150    18.6750 hn         1 7VW       0.331500
     84 H45        -16.6100    -3.0600    15.2150 hn         1 7VW       0.322500
     85 H46        -12.7870    -0.5260    14.3750 ho         1 7VW       0.448000
     86 H47        -11.6730    -6.4850    18.1370 h1         1 7VW       0.043700
     87 H48        -12.5490    -8.0610    16.3430 hn         1 7VW       0.324500
     88 O4         -16.1480    -2.8750    18.3220 o          1 7VW      -0.613100
     89 H2         -20.4050   -13.3390    20.5790 ha         1 7VW       0.114000
@<TRIPOS>BOND
     1     1    30 1   
     2     1    31 1   
     3     1    41 1   
     4     2     4 ar  
     5     2    28 ar  
     6     2    89 1   
     7     3    29 1   
     8     3    30 1   
     9     4    15 ar  
    10     4    42 1   
    11     5     6 1   
    12     5    31 1   
    13     5    37 1   
    14     5    43 1   
    15     6    44 1   
    16     6    45 1   
    17     6    46 1   
    18     7     8 1   
    19     7     9 1   
    20     7    33 1   
    21     7    47 1   
    22     8    34 1   
    23     8    88 2   
    24     9    10 1   
    25     9    48 1   
    26     9    49 1   
    27    10    23 1   
    28    10    24 1   
    29    10    25 1   
    30    11    12 1   
    31    11    13 1   
    32    11    34 1   
    33    11    50 1   
    34    12    40 1   
    35    12    51 1   
    36    12    52 1   
    37    13    14 1   
    38    13    53 1   
    39    13    54 1   
    40    14    16 1   
    41    14    18 1   
    42    14    55 1   
    43    15    26 ar  
    44    15    56 1   
    45    16    17 1   
    46    16    57 1   
    47    16    58 1   
    48    17    35 1   
    49    17    59 1   
    50    17    86 1   
    51    18    35 1   
    52    18    39 2   
    53    19    20 1   
    54    19    21 1   
    55    19    22 1   
    56    19    37 1   
    57    20    60 1   
    58    20    61 1   
    59    20    62 1   
    60    21    63 1   
    61    21    64 1   
    62    21    65 1   
    63    22    66 1   
    64    22    67 1   
    65    22    68 1   
    66    23    69 1   
    67    23    70 1   
    68    23    71 1   
    69    24    72 1   
    70    24    73 1   
    71    24    74 1   
    72    25    75 1   
    73    25    76 1   
    74    25    77 1   
    75    26    27 ar  
    76    26    78 1   
    77    27    28 ar  
    78    27    29 1   
    79    28    79 1   
    80    29    80 1   
    81    29    81 1   
    82    30    36 2   
    83    31    32 1   
    84    31    82 1   
    85    32    33 1   
    86    32    38 2   
    87    33    83 1   
    88    34    84 1   
    89    35    87 1   
    90    40    85 1   
@<TRIPOS>SUBSTRUCTURE
     1 7VW         1 TEMP              0 ****  ****    0 ROOT
