@<TRIPOS>MOLECULE
7VW
   89    90     1     0     0
SMALL
No Charge or Current Charge


@<TRIPOS>ATOM
      1 N          -19.4630    -8.1430    17.2800 ns         1 7VW      -0.480900
      2 C          -20.4870   -13.1570    20.0900 ca         1 7VW      -0.120000
      3 O          -21.0730    -9.6520    17.1060 os         1 7VW      -0.466100
      4 C1         -19.7870   -14.0070    19.2170 ca         1 7VW      -0.101000
      5 C10        -17.0710    -7.9370    18.0420 c3         1 7VW       0.156300
      6 C11        -16.0000    -7.0410    18.7100 c3         1 7VW      -0.117100
      7 C12        -17.8460    -3.4820    17.0460 c3         1 7VW       0.041700
      8 C13        -16.4070    -3.0320    17.4220 c          1 7VW       0.577100
      9 C14        -18.8820    -2.4000    17.4700 c3         1 7VW      -0.072400
     10 C15        -20.3440    -2.5040    16.9130 c3         1 7VW      -0.050000
     11 C16        -14.3270    -1.9290    16.5030 c3         1 7VW       0.102700
     12 C17        -14.1940    -0.3890    16.3530 c3         1 7VW       0.151600
     13 C18        -13.5010    -2.7250    15.4560 c3         1 7VW      -0.072400
     14 C19        -13.5850    -4.2750    15.5820 c5         1 7VW      -0.147700
     15 C2         -19.8080   -13.7610    17.8340 ca         1 7VW      -0.120000
     16 C20        -13.0170    -4.8670    16.9030 c5         1 7VW      -0.094400
     17 C21        -12.7940    -6.3500    16.5000 c5         1 7VW       0.099000
     18 C22        -12.7840    -5.0330    14.5140 c          1 7VW       0.557000
     19 C23        -16.7030   -10.3810    18.5220 c3         1 7VW       0.187000
     20 C24        -15.1600   -10.2850    18.4270 c3         1 7VW      -0.107433
     21 C25        -17.3300   -10.8560    17.1860 c3         1 7VW      -0.107433
     22 C26        -17.1140   -11.3340    19.6660 c3         1 7VW      -0.107433
     23 C27        -20.3450    -2.5280    15.3610 c3         1 7VW      -0.086433
     24 C28        -21.1230    -1.2460    17.3850 c3         1 7VW      -0.086433
     25 C29        -21.0900    -3.7560    17.4500 c3         1 7VW      -0.086433
     26 C3         -20.5300   -12.6680    17.3240 ca         1 7VW      -0.081000
     27 C4         -21.2290   -11.8080    18.1950 ca         1 7VW      -0.129300
     28 C5         -21.2050   -12.0610    19.5810 ca         1 7VW      -0.081000
     29 C6         -22.0030   -10.6160    17.6340 c3         1 7VW       0.230900
     30 C7         -20.3630    -8.8900    17.9840 c          1 7VW       0.645100
     31 C8         -18.4530    -7.2370    17.8800 c3         1 7VW       0.041700
     32 C9         -18.3260    -5.9700    16.9990 c          1 7VW       0.585100
     33 N1         -18.1090    -4.7910    17.6830 ns         1 7VW      -0.484900
     34 N2         -15.7410    -2.3290    16.4390 ns         1 7VW      -0.494900
     35 N3         -12.3560    -6.1850    15.1160 ns         1 7VW      -0.517900
     36 O1         -20.5150    -8.8570    19.1950 o          1 7VW      -0.536000
     37 O2         -17.2660    -9.0920    18.8960 os         1 7VW      -0.467000
     38 O3         -18.4090    -6.0030    15.7770 o          1 7VW      -0.615100
     39 O5         -12.3700    -4.6510    13.4320 o          1 7VW      -0.559000
     40 O6         -12.8390     0.0380    16.5620 oh         1 7VW      -0.664000
     41 H1         -19.4820    -8.2580    16.2750 hn         1 7VW       0.339500
     42 H3         -19.2280   -14.8530    19.6110 ha         1 7VW       0.112000
     43 H4         -16.7100    -8.2220    17.0450 h1         1 7VW       0.054700
     44 H5         -15.0680    -7.5860    18.8880 hc         1 7VW       0.048033
     45 H6         -15.7530    -6.1880    18.0690 hc         1 7VW       0.048033
     46 H7         -16.3580    -6.6580    19.6730 hc         1 7VW       0.048033
     47 H8         -17.8630    -3.5930    15.9550 h1         1 7VW       0.080700
     48 H9         -18.9170    -2.3640    18.5670 hc         1 7VW       0.058700
     49 H10        -18.4790    -1.4270    17.1590 hc         1 7VW       0.058700
     50 H11        -13.9350    -2.1820    17.4970 h1         1 7VW       0.093700
     51 H12        -14.8540     0.0940    17.0850 h1         1 7VW       0.028700
     52 H13        -14.5370    -0.0930    15.3520 h1         1 7VW       0.028700
     53 H14        -12.4500    -2.4180    15.5260 hc         1 7VW       0.068200
     54 H15        -13.8350    -2.4260    14.4540 hc         1 7VW       0.068200
     55 H16        -14.6260    -4.6040    15.4840 hc         1 7VW       0.080700
     56 H17        -19.2660   -14.4170    17.1570 ha         1 7VW       0.114000
     57 H18        -12.0660    -4.3930    17.1750 hc         1 7VW       0.065700
     58 H19        -13.6920    -4.7600    17.7580 hc         1 7VW       0.065700
     59 H20        -13.7260    -6.9290    16.5570 h1         1 7VW       0.043700
     60 H21        -14.7340    -9.8920    19.3580 hc         1 7VW       0.044589
     61 H22        -14.7280   -11.2780    18.2560 hc         1 7VW       0.044589
     62 H23        -14.8460    -9.6430    17.5960 hc         1 7VW       0.044589
     63 H24        -18.4230   -10.8090    17.2310 hc         1 7VW       0.044589
     64 H25        -16.9910   -10.2560    16.3350 hc         1 7VW       0.044589
     65 H26        -17.0510   -11.8960    16.9830 hc         1 7VW       0.044589
     66 H27        -16.6880   -11.0040    20.6210 hc         1 7VW       0.044589
     67 H28        -18.2050   -11.3620    19.7710 hc         1 7VW       0.044589
     68 H29        -16.7650   -12.3560    19.4720 hc         1 7VW       0.044589
     69 H30        -19.7950    -1.6710    14.9540 hc         1 7VW       0.036367
     70 H31        -19.8850    -3.4450    14.9740 hc         1 7VW       0.036367
     71 H32        -21.3700    -2.4870    14.9710 hc         1 7VW       0.036367
     72 H33        -21.1560    -1.1920    18.4800 hc         1 7VW       0.036367
     73 H34        -20.6500    -0.3270    17.0160 hc         1 7VW       0.036367
     74 H35        -22.1560    -1.2590    17.0180 hc         1 7VW       0.036367
     75 H36        -20.9950    -3.8350    18.5390 hc         1 7VW       0.036367
     76 H37        -22.1590    -3.7060    17.2080 hc         1 7VW       0.036367
     77 H38        -20.7070    -4.6780    17.0020 hc         1 7VW       0.036367
     78 H39        -20.5390   -12.4820    16.2520 ha         1 7VW       0.120500
     79 H40        -21.7380   -11.4040    20.2660 ha         1 7VW       0.120500
     80 H41        -22.6440   -10.1700    18.4070 h1         1 7VW       0.068200
     81 H42        -22.6630   -10.9750    16.8340 h1         1 7VW       0.068200
     82 H43        -18.8010    -6.9260    18.8720 h1         1 7VW       0.096700
     83 H44        -18.0280    -4.8500    18.6920 hn         1 7VW       0.331500
     84 H45        -16.2510    -2.1470    15.5820 hn         1 7VW       0.322500
     85 H46        -12.8260     1.0160    16.4600 ho         1 7VW       0.448000
     86 H47        -12.0410    -6.8400    17.1310 h1         1 7VW       0.043700
     87 H48        -11.7260    -6.7990    14.6110 hn         1 7VW       0.324500
     88 O4         -15.8870    -3.2970    18.4980 o          1 7VW      -0.613100
     89 H2         -20.4700   -13.3460    21.1610 ha         1 7VW       0.114000
@<TRIPOS>BOND
     1     1    30 1   
     2     1    31 1   
     3     1    41 1   
     4     2     4 ar  
     5     2    28 ar  
     6     2    89 1   
     7     3    29 1   
     8     3    30 1   
     9     4    15 ar  
    10     4    42 1   
    11     5     6 1   
    12     5    31 1   
    13     5    37 1   
    14     5    43 1   
    15     6    44 1   
    16     6    45 1   
    17     6    46 1   
    18     7     8 1   
    19     7     9 1   
    20     7    33 1   
    21     7    47 1   
    22     8    34 1   
    23     8    88 2   
    24     9    10 1   
    25     9    48 1   
    26     9    49 1   
    27    10    23 1   
    28    10    24 1   
    29    10    25 1   
    30    11    12 1   
    31    11    13 1   
    32    11    34 1   
    33    11    50 1   
    34    12    40 1   
    35    12    51 1   
    36    12    52 1   
    37    13    14 1   
    38    13    53 1   
    39    13    54 1   
    40    14    16 1   
    41    14    18 1   
    42    14    55 1   
    43    15    26 ar  
    44    15    56 1   
    45    16    17 1   
    46    16    57 1   
    47    16    58 1   
    48    17    35 1   
    49    17    59 1   
    50    17    86 1   
    51    18    35 1   
    52    18    39 2   
    53    19    20 1   
    54    19    21 1   
    55    19    22 1   
    56    19    37 1   
    57    20    60 1   
    58    20    61 1   
    59    20    62 1   
    60    21    63 1   
    61    21    64 1   
    62    21    65 1   
    63    22    66 1   
    64    22    67 1   
    65    22    68 1   
    66    23    69 1   
    67    23    70 1   
    68    23    71 1   
    69    24    72 1   
    70    24    73 1   
    71    24    74 1   
    72    25    75 1   
    73    25    76 1   
    74    25    77 1   
    75    26    27 ar  
    76    26    78 1   
    77    27    28 ar  
    78    27    29 1   
    79    28    79 1   
    80    29    80 1   
    81    29    81 1   
    82    30    36 2   
    83    31    32 1   
    84    31    82 1   
    85    32    33 1   
    86    32    38 2   
    87    33    83 1   
    88    34    84 1   
    89    35    87 1   
    90    40    85 1   
@<TRIPOS>SUBSTRUCTURE
     1 7VW         1 TEMP              0 ****  ****    0 ROOT
