@<TRIPOS>MOLECULE
7VX
   75    79     1     0     0
SMALL
abcg2


@<TRIPOS>ATOM
      1 O2          93.2570   110.3590    -6.9290 o          1 7VX      -0.549100
      2 C           92.2860   110.1010    -6.2370 c          1 7VX       0.581100
      3 C3          91.9560   108.6960    -5.7970 c6         1 7VX      -0.161700
      4 C4          90.7590   108.2260    -6.6530 c3         1 7VX      -0.081100
      5 C5          91.7710   108.6020    -4.2440 c6         1 7VX      -0.035700
      6 C27         91.3030   109.9340    -3.5680 c6         1 7VX      -0.035000
      7 C2          90.4800   110.7660    -4.5810 c6         1 7VX      -0.062400
      8 C1          91.3090   111.1690    -5.8070 c6         1 7VX      -0.180400
      9 C28         92.5280   110.8030    -3.2100 c3         1 7VX      -0.094100
     10 C26         90.4690   109.6460    -2.2580 c6         1 7VX      -0.033700
     11 C8          90.9450   108.3910    -1.4560 c6         1 7VX      -0.022000
     12 C9          92.4210   108.5220    -1.0320 c3         1 7VX      -0.084100
     13 C7          90.8150   107.1330    -2.3540 c6         1 7VX      -0.066400
     14 C6          90.8870   107.4130    -3.8630 c6         1 7VX      -0.064400
     15 C25         88.9490   109.6030    -2.5290 c6         1 7VX      -0.021200
     16 C24         88.1230   108.8640    -1.5300 c2         1 7VX      -0.266200
     17 C23         88.5920   108.1770    -0.4950 c2         1 7VX      -0.040400
     18 C10         90.0690   108.2270    -0.1440 c6         1 7VX       0.002200
     19 C11         90.2990   109.4180     0.8170 c3         1 7VX      -0.083100
     20 C22         87.6500   107.2860     0.2970 c6         1 7VX      -0.015500
     21 C14         88.0590   107.0230     1.7680 c6         1 7VX      -0.161000
     22 C15         87.5990   108.2020     2.6950 c          1 7VX       0.709000
     23 O1          88.1120   108.2530     3.8450 o          1 7VX      -0.730500
     24 O           86.7180   108.9940     2.2690 o          1 7VX      -0.730500
     25 C13         89.5890   106.7760     1.9090 c6         1 7VX      -0.056400
     26 C12         90.3970   106.9250     0.6160 c6         1 7VX      -0.061400
     27 C21         87.3680   105.9550    -0.4250 c6         1 7VX      -0.056400
     28 C18         86.0810   105.2790     0.1100 c6         1 7VX      -0.051000
     29 C20         86.1860   103.7640    -0.0930 c3         1 7VX      -0.078600
     30 C19         84.8590   105.8040    -0.6510 c3         1 7VX      -0.078600
     31 C17         85.9300   105.6030     1.6170 c6         1 7VX      -0.065400
     32 C16         87.2920   105.7640     2.2770 c6         1 7VX      -0.051400
     33 H1          92.8070   108.0700    -6.0700 hc         1 7VX       0.061700
     34 H2          90.5660   107.1680    -6.4860 hc         1 7VX       0.037367
     35 H3          89.8430   108.7750    -6.4360 hc         1 7VX       0.037367
     36 H4          90.9910   108.3600    -7.7110 hc         1 7VX       0.037367
     37 H5          92.7720   108.3940    -3.8620 hc         1 7VX       0.047700
     38 H6          90.1030   111.6670    -4.0940 hc         1 7VX       0.046700
     39 H7          89.6090   110.2070    -4.9130 hc         1 7VX       0.046700
     40 H8          91.8700   112.0900    -5.6500 hc         1 7VX       0.060700
     41 H9          90.6480   111.3540    -6.6610 hc         1 7VX       0.060700
     42 H10         93.1250   110.3700    -2.4170 hc         1 7VX       0.033700
     43 H11         93.1920   110.9440    -4.0640 hc         1 7VX       0.033700
     44 H12         92.1990   111.7930    -2.8820 hc         1 7VX       0.033700
     45 H13         90.6440   110.5130    -1.6190 hc         1 7VX       0.050700
     46 H14         92.6290   109.4720    -0.5420 hc         1 7VX       0.029033
     47 H15         92.6870   107.7240    -0.3410 hc         1 7VX       0.029033
     48 H16         93.0930   108.4280    -1.8810 hc         1 7VX       0.029033
     49 H17         89.8700   106.6280    -2.1550 hc         1 7VX       0.043700
     50 H18         91.6030   106.4280    -2.0780 hc         1 7VX       0.043700
     51 H19         89.8800   107.5830    -4.2450 hc         1 7VX       0.033200
     52 H20         91.2520   106.5180    -4.3720 hc         1 7VX       0.033200
     53 H21         88.5800   110.6280    -2.6290 hc         1 7VX       0.027700
     54 H22         88.7430   109.1420    -3.4980 hc         1 7VX       0.027700
     55 H23         87.0560   108.8230    -1.7470 ha         1 7VX       0.168000
     56 H24         89.5750   109.4050     1.6290 hc         1 7VX       0.042700
     57 H25         91.2940   109.3830     1.2620 hc         1 7VX       0.042700
     58 H26         90.1840   110.3710     0.3020 hc         1 7VX       0.042700
     59 H27         86.7030   107.8190     0.3360 hc         1 7VX       0.088700
     60 H29         89.7610   105.7690     2.2960 hc         1 7VX       0.041700
     61 H30         89.9840   107.4520     2.6640 hc         1 7VX       0.041700
     62 H31         90.2150   106.0700    -0.0350 hc         1 7VX       0.020200
     63 H32         91.4540   106.8940     0.8810 hc         1 7VX       0.020200
     64 H33         87.2630   106.1310    -1.4980 hc         1 7VX       0.024200
     65 H34         88.2160   105.2760    -0.3060 hc         1 7VX       0.024200
     66 H35         85.2590   103.2650     0.2020 hc         1 7VX       0.023533
     67 H36         86.3820   103.5240    -1.1420 hc         1 7VX       0.023533
     68 H37         87.0010   103.3450     0.5030 hc         1 7VX       0.023533
     69 H38         83.9350   105.4030    -0.2240 hc         1 7VX       0.023533
     70 H39         84.8040   106.8940    -0.5990 hc         1 7VX       0.023533
     71 H40         84.9000   105.5150    -1.7040 hc         1 7VX       0.023533
     72 H41         85.3560   106.5250     1.7430 hc         1 7VX       0.041700
     73 H42         85.3550   104.8100     2.1040 hc         1 7VX       0.041700
     74 H43         87.8910   104.8740     2.0600 hc         1 7VX       0.029700
     75 H44         87.2070   105.8130     3.3650 hc         1 7VX       0.029700
@<TRIPOS>BOND
     1     1     2 2   
     2     2     3 1   
     3     2     8 1   
     4     3     4 1   
     5     3     5 1   
     6     3    33 1   
     7     4    34 1   
     8     4    35 1   
     9     4    36 1   
    10     5     6 1   
    11     5    14 1   
    12     5    37 1   
    13     6     7 1   
    14     6     9 1   
    15     6    10 1   
    16     7     8 1   
    17     7    38 1   
    18     7    39 1   
    19     8    40 1   
    20     8    41 1   
    21     9    42 1   
    22     9    43 1   
    23     9    44 1   
    24    10    11 1   
    25    10    15 1   
    26    10    45 1   
    27    11    12 1   
    28    11    13 1   
    29    11    18 1   
    30    12    46 1   
    31    12    47 1   
    32    12    48 1   
    33    13    14 1   
    34    13    49 1   
    35    13    50 1   
    36    14    51 1   
    37    14    52 1   
    38    15    16 1   
    39    15    53 1   
    40    15    54 1   
    41    16    17 2   
    42    16    55 1   
    43    17    18 1   
    44    17    20 1   
    45    18    19 1   
    46    18    26 1   
    47    19    56 1   
    48    19    57 1   
    49    19    58 1   
    50    20    21 1   
    51    20    27 1   
    52    20    59 1   
    53    21    22 1   
    54    21    25 1   
    55    21    32 1   
    56    22    23 1   
    57    22    24 1   
    58    25    26 1   
    59    25    60 1   
    60    25    61 1   
    61    26    62 1   
    62    26    63 1   
    63    27    28 1   
    64    27    64 1   
    65    27    65 1   
    66    28    29 1   
    67    28    30 1   
    68    28    31 1   
    69    29    66 1   
    70    29    67 1   
    71    29    68 1   
    72    30    69 1   
    73    30    70 1   
    74    30    71 1   
    75    31    32 1   
    76    31    72 1   
    77    31    73 1   
    78    32    74 1   
    79    32    75 1   
@<TRIPOS>SUBSTRUCTURE
     1 7VX         1 TEMP              0 ****  ****    0 ROOT
