@<TRIPOS>MOLECULE
7VX
   75    79     1     0     0
SMALL
No Charge or Current Charge


@<TRIPOS>ATOM
      1 O2          93.1390   110.3370    -7.2590 o          1 7VX      -0.549100
      2 C           92.2560   110.0850    -6.4470 c          1 7VX       0.581100
      3 C3          92.0380   108.6560    -5.9020 c6         1 7VX      -0.161700
      4 C4          90.8880   108.0460    -6.7720 c3         1 7VX      -0.081100
      5 C5          91.7920   108.5880    -4.3360 c6         1 7VX      -0.035700
      6 C27         91.3570   109.9610    -3.6580 c6         1 7VX      -0.035000
      7 C2          90.5050   110.7970    -4.6770 c6         1 7VX      -0.062400
      8 C1          91.2900   111.1740    -5.9590 c6         1 7VX      -0.180400
      9 C28         92.6240   110.8470    -3.3320 c3         1 7VX      -0.094100
     10 C26         90.5170   109.6940    -2.2710 c6         1 7VX      -0.033700
     11 C8          90.9860   108.4190    -1.4140 c6         1 7VX      -0.022000
     12 C9          92.5010   108.5060    -1.0030 c3         1 7VX      -0.084100
     13 C7          90.7890   107.1530    -2.3510 c6         1 7VX      -0.066400
     14 C6          90.8980   107.3770    -3.9120 c6         1 7VX      -0.064400
     15 C25         88.9310   109.6740    -2.4590 c6         1 7VX      -0.021200
     16 C24         88.0890   108.9730    -1.4070 c2         1 7VX      -0.266200
     17 C23         88.5580   108.2930    -0.3500 c2         1 7VX      -0.040400
     18 C10         90.0770   108.2920    -0.0270 c6         1 7VX       0.002200
     19 C11         90.2750   109.5440     0.9390 c3         1 7VX      -0.083100
     20 C22         87.6010   107.3550     0.4150 c6         1 7VX      -0.015500
     21 C14         87.9960   106.9750     1.9180 c6         1 7VX      -0.161000
     22 C15         87.4600   108.0490     2.9440 c          1 7VX       0.709000
     23 O1          87.6490   107.8500     4.1380 o          1 7VX      -0.730500
     24 O           86.9070   109.0620     2.5390 o          1 7VX      -0.730500
     25 C13         89.5540   106.8360     2.1050 c6         1 7VX      -0.056400
     26 C12         90.3960   106.9810     0.8150 c6         1 7VX      -0.061400
     27 C21         87.3020   106.0850    -0.4420 c6         1 7VX      -0.056400
     28 C18         86.0500   105.2970     0.0780 c6         1 7VX      -0.051000
     29 C20         86.1720   103.8040    -0.3580 c3         1 7VX      -0.078600
     30 C19         84.7400   105.8490    -0.5670 c3         1 7VX      -0.078600
     31 C17         85.9470   105.4080     1.6370 c6         1 7VX      -0.065400
     32 C16         87.3440   105.5770     2.2760 c6         1 7VX      -0.051400
     33 H1          92.9310   108.0700    -6.1600 hc         1 7VX       0.061700
     34 H2          90.7850   106.9660    -6.6160 hc         1 7VX       0.037367
     35 H3          89.9180   108.5120    -6.5620 hc         1 7VX       0.037367
     36 H4          91.0900   108.1850    -7.8410 hc         1 7VX       0.037367
     37 H5          92.7850   108.3530    -3.9380 hc         1 7VX       0.047700
     38 H6          90.1220   111.7130    -4.2050 hc         1 7VX       0.046700
     39 H7          89.6230   110.2310    -4.9990 hc         1 7VX       0.046700
     40 H8          91.8500   112.1120    -5.8490 hc         1 7VX       0.060700
     41 H9          90.5780   111.3590    -6.7740 hc         1 7VX       0.060700
     42 H10         93.2430   110.4600    -2.5250 hc         1 7VX       0.033700
     43 H11         93.3000   110.9560    -4.1860 hc         1 7VX       0.033700
     44 H12         92.3260   111.8580    -3.0280 hc         1 7VX       0.033700
     45 H13         90.7080   110.5750    -1.6470 hc         1 7VX       0.050700
     46 H14         92.7330   109.4500    -0.4970 hc         1 7VX       0.029033
     47 H15         92.8010   107.6980    -0.3310 hc         1 7VX       0.029033
     48 H16         93.1820   108.4060    -1.8490 hc         1 7VX       0.029033
     49 H17         89.8080   106.7010    -2.1610 hc         1 7VX       0.043700
     50 H18         91.5070   106.3760    -2.0570 hc         1 7VX       0.043700
     51 H19         89.8850   107.5080    -4.3140 hc         1 7VX       0.033200
     52 H20         91.2810   106.4530    -4.3660 hc         1 7VX       0.033200
     53 H21         88.5690   110.7060    -2.5630 hc         1 7VX       0.027700
     54 H22         88.6740   109.1740    -3.3980 hc         1 7VX       0.027700
     55 H23         87.0270   108.9240    -1.6480 ha         1 7VX       0.168000
     56 H24         89.5770   109.5390     1.7810 hc         1 7VX       0.042700
     57 H25         91.2860   109.5760     1.3600 hc         1 7VX       0.042700
     58 H26         90.0990   110.4950     0.4280 hc         1 7VX       0.042700
     59 H27         86.6380   107.8810     0.4420 hc         1 7VX       0.088700
     60 H29         89.8090   105.8760     2.5750 hc         1 7VX       0.041700
     61 H30         89.9140   107.5730     2.8340 hc         1 7VX       0.041700
     62 H31         90.2640   106.0870     0.1930 hc         1 7VX       0.020200
     63 H32         91.4460   106.9660     1.1260 hc         1 7VX       0.020200
     64 H33         87.1490   106.3590    -1.4950 hc         1 7VX       0.024200
     65 H34         88.1850   105.4330    -0.4440 hc         1 7VX       0.024200
     66 H35         85.2960   103.2210    -0.0490 hc         1 7VX       0.023533
     67 H36         86.2610   103.7120    -1.4480 hc         1 7VX       0.023533
     68 H37         87.0540   103.3270     0.0850 hc         1 7VX       0.023533
     69 H38         83.8580   105.3070    -0.2060 hc         1 7VX       0.023533
     70 H39         84.5900   106.9100    -0.3330 hc         1 7VX       0.023533
     71 H40         84.7600   105.7570    -1.6600 hc         1 7VX       0.023533
     72 H41         85.3210   106.2640     1.9260 hc         1 7VX       0.041700
     73 H42         85.4480   104.5220     2.0520 hc         1 7VX       0.041700
     74 H43         87.9790   104.7500     1.9290 hc         1 7VX       0.029700
     75 H44         87.2710   105.4420     3.3630 hc         1 7VX       0.029700
@<TRIPOS>BOND
     1     1     2 2   
     2     2     3 1   
     3     2     8 1   
     4     3     4 1   
     5     3     5 1   
     6     3    33 1   
     7     4    34 1   
     8     4    35 1   
     9     4    36 1   
    10     5     6 1   
    11     5    14 1   
    12     5    37 1   
    13     6     7 1   
    14     6     9 1   
    15     6    10 1   
    16     7     8 1   
    17     7    38 1   
    18     7    39 1   
    19     8    40 1   
    20     8    41 1   
    21     9    42 1   
    22     9    43 1   
    23     9    44 1   
    24    10    11 1   
    25    10    15 1   
    26    10    45 1   
    27    11    12 1   
    28    11    13 1   
    29    11    18 1   
    30    12    46 1   
    31    12    47 1   
    32    12    48 1   
    33    13    14 1   
    34    13    49 1   
    35    13    50 1   
    36    14    51 1   
    37    14    52 1   
    38    15    16 1   
    39    15    53 1   
    40    15    54 1   
    41    16    17 2   
    42    16    55 1   
    43    17    18 1   
    44    17    20 1   
    45    18    19 1   
    46    18    26 1   
    47    19    56 1   
    48    19    57 1   
    49    19    58 1   
    50    20    21 1   
    51    20    27 1   
    52    20    59 1   
    53    21    22 1   
    54    21    25 1   
    55    21    32 1   
    56    22    23 1   
    57    22    24 1   
    58    25    26 1   
    59    25    60 1   
    60    25    61 1   
    61    26    62 1   
    62    26    63 1   
    63    27    28 1   
    64    27    64 1   
    65    27    65 1   
    66    28    29 1   
    67    28    30 1   
    68    28    31 1   
    69    29    66 1   
    70    29    67 1   
    71    29    68 1   
    72    30    69 1   
    73    30    70 1   
    74    30    71 1   
    75    31    32 1   
    76    31    72 1   
    77    31    73 1   
    78    32    74 1   
    79    32    75 1   
@<TRIPOS>SUBSTRUCTURE
     1 7VX         1 TEMP              0 ****  ****    0 ROOT
