@<TRIPOS>MOLECULE
7VY
   34    35     1     0     0
SMALL
No Charge or Current Charge


@<TRIPOS>ATOM
      1 C1           3.1420     1.1060     0.0720 ca         1 7VY      -0.198000
      2 C2           2.2870     2.0130     0.7200 ca         1 7VY      -0.072000
      3 C3           1.0300     1.5900     1.1810 ca         1 7VY      -0.145000
      4 C11         -4.3370     0.1500    -1.0300 c6         1 7VY       0.147800
      5 C13         -2.0370     0.8600    -0.4760 c6         1 7VY       0.150800
      6 C4           0.6160     0.2570     0.9980 ca         1 7VY      -0.043300
      7 C5           1.4770    -0.6470     0.3480 ca         1 7VY      -0.145000
      8 C6           2.7360    -0.2330    -0.1160 ca         1 7VY       0.141100
      9 C7          -0.7510    -0.2040     1.4910 c3         1 7VY      -0.026100
     10 C8          -1.7840    -0.4350     0.3480 c6         1 7VY      -0.095700
     11 C9          -3.1240    -0.9900     0.9030 c6         1 7VY      -0.073400
     12 C10         -4.1580    -1.1650    -0.2350 c6         1 7VY      -0.112400
     13 N12         -3.0360     0.6320    -1.5510 n7         1 7VY      -0.844400
     14 O14          3.5320    -1.1700    -0.7450 os         1 7VY      -0.344100
     15 H1           4.1090     1.4580    -0.2760 ha         1 7VY       0.116000
     16 H2           2.5990     3.0460     0.8650 ha         1 7VY       0.111000
     17 H3           0.3760     2.3030     1.6790 ha         1 7VY       0.114000
     18 H5          -4.7790     0.9170    -0.3760 h1         1 7VY       0.050700
     19 H6          -2.3930     1.6580     0.1930 h1         1 7VY       0.054200
     20 H7          -1.0930     1.2050    -0.9260 h1         1 7VY       0.054200
     21 H8           5.2940    -1.7330    -1.7170 h1         1 7VY       0.039700
     22 H9           4.7730    -0.0630    -2.0220 h1         1 7VY       0.039700
     23 H10          5.4980    -0.5020    -0.4520 h1         1 7VY       0.039700
     24 H11          1.1690    -1.6790     0.2010 ha         1 7VY       0.124000
     25 H12         -0.6250    -1.1330     2.0600 hc         1 7VY       0.048700
     26 H13         -1.1540     0.5230     2.2080 hc         1 7VY       0.048700
     27 H14         -1.3470    -1.1910    -0.3190 hc         1 7VY       0.050700
     28 H15         -2.9580    -1.9520     1.4070 hc         1 7VY       0.040200
     29 H16         -3.5280    -0.3040     1.6620 hc         1 7VY       0.040200
     30 H17         -5.1240    -1.4810     0.1820 hc         1 7VY       0.042700
     31 H18         -3.8330    -1.9670    -0.9130 hc         1 7VY       0.042700
     32 H19         -2.6620    -0.0850    -2.1860 hn         1 7VY       0.402000
     33 H4          -5.0340    -0.0150    -1.8650 h1         1 7VY       0.050700
     34 C15          4.8370    -0.8470    -1.2580 c3         1 7VY       0.149900
@<TRIPOS>BOND
     1     1     2 ar  
     2     1     8 ar  
     3     1    15 1   
     4     2     3 ar  
     5     2    16 1   
     6     3     6 ar  
     7     3    17 1   
     8     4    12 1   
     9     4    13 1   
    10     4    18 1   
    11     4    33 1   
    12     5    10 1   
    13     5    13 1   
    14     5    19 1   
    15     5    20 1   
    16     6     7 ar  
    17     6     9 1   
    18     7     8 ar  
    19     7    24 1   
    20     8    14 1   
    21     9    10 1   
    22     9    25 1   
    23     9    26 1   
    24    10    11 1   
    25    10    27 1   
    26    11    12 1   
    27    11    28 1   
    28    11    29 1   
    29    12    30 1   
    30    12    31 1   
    31    13    32 1   
    32    14    34 1   
    33    21    34 1   
    34    22    34 1   
    35    23    34 1   
@<TRIPOS>SUBSTRUCTURE
     1 7VY         1 TEMP              0 ****  ****    0 ROOT
