@<TRIPOS>MOLECULE
7VY
   34    35     1     0     0
SMALL
abcg2


@<TRIPOS>ATOM
      1 C1           3.1050     1.0860    -0.0650 ca         1 7VY      -0.198000
      2 C2           2.1930     1.9910     0.4670 ca         1 7VY      -0.072000
      3 C3           0.9660     1.5730     0.9530 ca         1 7VY      -0.145000
      4 C11         -4.3570     0.2040    -0.8770 c6         1 7VY       0.147800
      5 C13         -2.1090     0.9180    -0.3720 c6         1 7VY       0.150800
      6 C4           0.6220     0.2210     0.9080 ca         1 7VY      -0.043300
      7 C5           1.5310    -0.6850     0.3790 ca         1 7VY      -0.145000
      8 C6           2.7710    -0.2660    -0.1040 ca         1 7VY       0.141100
      9 C7          -0.7170    -0.2600     1.3960 c3         1 7VY      -0.026100
     10 C8          -1.7560    -0.4210     0.2810 c6         1 7VY      -0.095700
     11 C9          -3.0280    -1.0740     0.8220 c6         1 7VY      -0.073400
     12 C10         -4.1080    -1.1650    -0.2510 c6         1 7VY      -0.112400
     13 N12         -3.1520     0.8420    -1.3830 n7         1 7VY      -0.844400
     14 O14          3.5790    -1.2340    -0.5830 os         1 7VY      -0.344100
     15 H1           4.0560     1.4480    -0.4330 ha         1 7VY       0.116000
     16 H2           2.4560     3.0410     0.4990 ha         1 7VY       0.111000
     17 H3           0.2720     2.2920     1.3690 ha         1 7VY       0.114000
     18 H5          -4.8040     0.8680    -0.1290 h1         1 7VY       0.050700
     19 H6          -2.4450     1.6090     0.4120 h1         1 7VY       0.054200
     20 H7          -1.2240     1.3700    -0.8250 h1         1 7VY       0.054200
     21 H8           5.3610    -1.8020    -1.3260 h1         1 7VY       0.039700
     22 H9           4.8430    -0.2040    -1.8860 h1         1 7VY       0.039700
     23 H10          5.4630    -0.4120    -0.2330 h1         1 7VY       0.039700
     24 H11          1.2840    -1.7410     0.3470 ha         1 7VY       0.124000
     25 H12         -0.5950    -1.2230     1.8990 hc         1 7VY       0.048700
     26 H13         -1.1080     0.4350     2.1460 hc         1 7VY       0.048700
     27 H14         -1.3330    -1.0770    -0.4920 hc         1 7VY       0.050700
     28 H15         -2.8010    -2.0660     1.2220 hc         1 7VY       0.040200
     29 H16         -3.4000    -0.4770     1.6640 hc         1 7VY       0.040200
     30 H17         -5.0360    -1.5590     0.1720 hc         1 7VY       0.042700
     31 H18         -3.7950    -1.8660    -1.0320 hc         1 7VY       0.042700
     32 H19         -2.8060     0.3060    -2.1710 hn         1 7VY       0.402000
     33 H4          -5.0790     0.1260    -1.6940 h1         1 7VY       0.050700
     34 C15          4.8720    -0.8780    -1.0260 c3         1 7VY       0.149900
@<TRIPOS>BOND
     1     1     2 ar  
     2     1     8 ar  
     3     1    15 1   
     4     2     3 ar  
     5     2    16 1   
     6     3     6 ar  
     7     3    17 1   
     8     4    12 1   
     9     4    13 1   
    10     4    18 1   
    11     4    33 1   
    12     5    10 1   
    13     5    13 1   
    14     5    19 1   
    15     5    20 1   
    16     6     7 ar  
    17     6     9 1   
    18     7     8 ar  
    19     7    24 1   
    20     8    14 1   
    21     9    10 1   
    22     9    25 1   
    23     9    26 1   
    24    10    11 1   
    25    10    27 1   
    26    11    12 1   
    27    11    28 1   
    28    11    29 1   
    29    12    30 1   
    30    12    31 1   
    31    13    32 1   
    32    14    34 1   
    33    21    34 1   
    34    22    34 1   
    35    23    34 1   
@<TRIPOS>SUBSTRUCTURE
     1 7VY         1 TEMP              0 ****  ****    0 ROOT
