@<TRIPOS>MOLECULE
7VZ
   40    41     1     0     0
SMALL
abcg2


@<TRIPOS>ATOM
      1 CL           1.4980     4.0890    38.1450 cl         1 7VZ      -0.149000
      2 C10          2.7380     3.5960    37.0590 ca         1 7VZ       0.208000
      3 C11          2.4620     3.1330    35.7730 ca         1 7VZ      -0.147600
      4 C14          1.0750     2.9420    35.2590 c          1 7VZ       0.606700
      5 O16          1.0330     3.0390    33.9410 os         1 7VZ      -0.448100
      6 C17         -0.2210     2.7870    33.3040 c3         1 7VZ       0.152900
      7 O15          0.1190     2.7070    35.9500 o          1 7VZ      -0.456000
      8 C9           4.0430     3.7020    37.5160 ca         1 7VZ      -0.132000
      9 C8           5.1180     3.3560    36.7080 ca         1 7VZ       0.022000
     10 C7           4.8450     2.9040    35.4110 ca         1 7VZ      -0.285500
     11 S4           6.2070     2.4880    34.3310 sy         1 7VZ       1.167600
     12 O6           6.8800     3.7240    33.9790 o          1 7VZ      -0.516500
     13 N1           5.5930     1.8840    32.9460 n8         1 7VZ      -1.039100
     14 O5           6.9260     1.4050    34.9770 o          1 7VZ      -0.516500
     15 C12          3.5430     2.7990    34.9620 ca         1 7VZ       0.013000
     16 S21          6.7710     3.4320    37.3070 ss         1 7VZ      -0.149000
     17 C22          6.8290     5.0240    38.2130 c6         1 7VZ       0.077300
     18 C23          8.2570     5.0960    38.7860 c6         1 7VZ      -0.067900
     19 C24          8.6870     6.5510    38.9380 c6         1 7VZ      -0.074400
     20 C25          8.8020     7.2280    37.5660 c6         1 7VZ      -0.075400
     21 C26          7.7620     6.6840    36.5730 c6         1 7VZ      -0.074400
     22 C27          6.5130     6.2170    37.3070 c6         1 7VZ      -0.067900
     23 H1          -0.0370     2.8920    32.2390 h1         1 7VZ       0.052367
     24 H2          -0.5760     1.7790    33.5150 h1         1 7VZ       0.052367
     25 H3          -0.9750     3.5090    33.6160 h1         1 7VZ       0.052367
     26 H4           4.2140     4.0480    38.5260 ha         1 7VZ       0.140000
     27 H5           5.1180     0.9920    33.0150 hn         1 7VZ       0.490000
     28 H6           5.1330     2.5460    32.3330 hn         1 7VZ       0.490000
     29 H7           3.3510     2.4430    33.9590 ha         1 7VZ       0.120000
     30 H8           6.1210     4.9800    39.0410 h1         1 7VZ       0.065700
     31 H9           8.2970     4.5650    39.7380 hc         1 7VZ       0.052450
     32 H10          8.9680     4.5960    38.1200 hc         1 7VZ       0.052450
     33 H11          7.9630     7.0780    39.5660 hc         1 7VZ       0.048950
     34 H12          9.6400     6.6020    39.4680 hc         1 7VZ       0.048950
     35 H13          9.8050     7.0740    37.1630 hc         1 7VZ       0.040700
     36 H14          8.6800     8.3070    37.6820 hc         1 7VZ       0.040700
     37 H15          8.1750     5.8430    36.0100 hc         1 7VZ       0.048950
     38 H16          7.5080     7.4460    35.8350 hc         1 7VZ       0.048950
     39 H17          6.1280     7.0290    37.9310 hc         1 7VZ       0.052450
     40 H18          5.7100     5.9760    36.6080 hc         1 7VZ       0.052450
@<TRIPOS>BOND
     1     1     2 1   
     2     2     3 ar  
     3     2     8 ar  
     4     3     4 1   
     5     3    15 ar  
     6     4     5 1   
     7     4     7 2   
     8     5     6 1   
     9     6    23 1   
    10     6    24 1   
    11     6    25 1   
    12     8     9 ar  
    13     8    26 1   
    14     9    10 ar  
    15     9    16 1   
    16    10    11 1   
    17    10    15 ar  
    18    11    12 2   
    19    11    13 1   
    20    11    14 2   
    21    13    27 1   
    22    13    28 1   
    23    15    29 1   
    24    16    17 1   
    25    17    18 1   
    26    17    22 1   
    27    17    30 1   
    28    18    19 1   
    29    18    31 1   
    30    18    32 1   
    31    19    20 1   
    32    19    33 1   
    33    19    34 1   
    34    20    21 1   
    35    20    35 1   
    36    20    36 1   
    37    21    22 1   
    38    21    37 1   
    39    21    38 1   
    40    22    39 1   
    41    22    40 1   
@<TRIPOS>SUBSTRUCTURE
     1 7VZ         1 TEMP              0 ****  ****    0 ROOT
