@<TRIPOS>MOLECULE
7VZ
   40    41     1     0     0
SMALL
No Charge or Current Charge


@<TRIPOS>ATOM
      1 Cl           1.4840     3.4900    38.2990 cl         1 7VZ      -0.149000
      2 C10          2.7150     3.2580    37.0550 ca         1 7VZ       0.208000
      3 C11          2.3940     3.0760    35.6940 ca         1 7VZ      -0.147600
      4 C14          0.9700     3.0170    35.2110 c          1 7VZ       0.606700
      5 O16          0.8060     3.5730    33.9660 os         1 7VZ      -0.448100
      6 C17         -0.5120     3.5690    33.3860 c3         1 7VZ       0.152900
      7 O15          0.0560     2.5020    35.8420 o          1 7VZ      -0.456000
      8 C9           4.0560     3.2980    37.4620 ca         1 7VZ      -0.132000
      9 C8           5.1030     3.1660    36.5350 ca         1 7VZ       0.022000
     10 C7           4.7980     2.9820    35.1630 ca         1 7VZ      -0.285500
     11 S4           6.0710     2.8090    33.8900 sy         1 7VZ       1.167600
     12 O6           5.4450     2.6100    32.5850 o          1 7VZ      -0.516500
     13 N1           6.7120     1.3450    34.2380 n8         1 7VZ      -1.039100
     14 O5           7.1580     3.7660    34.0960 o          1 7VZ      -0.516500
     15 C12          3.4440     2.9410    34.7600 ca         1 7VZ       0.013000
     16 S21          6.7860     3.2120    37.1560 ss         1 7VZ      -0.149000
     17 C22          6.8630     4.8460    38.0250 c6         1 7VZ       0.077300
     18 C23          8.2190     5.0020    38.7780 c6         1 7VZ      -0.067900
     19 C24          8.5840     6.4870    39.0140 c6         1 7VZ      -0.074400
     20 C25          8.7600     7.2480    37.6690 c6         1 7VZ      -0.075400
     21 C26          7.8760     6.6780    36.5230 c6         1 7VZ      -0.074400
     22 C27          6.5740     6.0490    37.0720 c6         1 7VZ      -0.067900
     23 H1          -0.4950     4.0430    32.3970 h1         1 7VZ       0.052367
     24 H2          -0.8830     2.5430    33.2640 h1         1 7VZ       0.052367
     25 H3          -1.2200     4.1220    34.0160 h1         1 7VZ       0.052367
     26 H4           4.2790     3.4270    38.5170 ha         1 7VZ       0.140000
     27 H5           6.0220     0.9640    34.8800 hn         1 7VZ       0.490000
     28 H6           6.5320     0.8520    33.3670 hn         1 7VZ       0.490000
     29 H7           3.1960     2.7970    33.7090 ha         1 7VZ       0.120000
     30 H8           6.0630     4.8300    38.7780 h1         1 7VZ       0.065700
     31 H9           8.1750     4.4630    39.7340 hc         1 7VZ       0.052450
     32 H10          9.0230     4.5290    38.1980 hc         1 7VZ       0.052450
     33 H11          7.7920     6.9640    39.6100 hc         1 7VZ       0.048950
     34 H12          9.5040     6.5630    39.6100 hc         1 7VZ       0.048950
     35 H13          9.8130     7.2140    37.3570 hc         1 7VZ       0.040700
     36 H14          8.5260     8.3100    37.8270 hc         1 7VZ       0.040700
     37 H15          8.4370     5.9140    35.9660 hc         1 7VZ       0.048950
     38 H16          7.6410     7.4730    35.8010 hc         1 7VZ       0.048950
     39 H17          6.0130     6.8180    37.6220 hc         1 7VZ       0.052450
     40 H18          5.9230     5.7430    36.2430 hc         1 7VZ       0.052450
@<TRIPOS>BOND
     1     1     2 1   
     2     2     3 ar  
     3     2     8 ar  
     4     3     4 1   
     5     3    15 ar  
     6     4     5 1   
     7     4     7 2   
     8     5     6 1   
     9     6    23 1   
    10     6    24 1   
    11     6    25 1   
    12     8     9 ar  
    13     8    26 1   
    14     9    10 ar  
    15     9    16 1   
    16    10    11 1   
    17    10    15 ar  
    18    11    12 2   
    19    11    13 1   
    20    11    14 2   
    21    13    27 1   
    22    13    28 1   
    23    15    29 1   
    24    16    17 1   
    25    17    18 1   
    26    17    22 1   
    27    17    30 1   
    28    18    19 1   
    29    18    31 1   
    30    18    32 1   
    31    19    20 1   
    32    19    33 1   
    33    19    34 1   
    34    20    21 1   
    35    20    35 1   
    36    20    36 1   
    37    21    22 1   
    38    21    37 1   
    39    21    38 1   
    40    22    39 1   
    41    22    40 1   
@<TRIPOS>SUBSTRUCTURE
     1 7VZ         1 TEMP              0 ****  ****    0 ROOT
