@<TRIPOS>MOLECULE
7W1
   22    23     1     0     0
SMALL
No Charge or Current Charge


@<TRIPOS>ATOM
      1 C11         -1.0180     0.7740    -0.0720 ca         1 7W1       0.366000
      2 C01         -3.4670    -0.0160    -0.0170 c3         1 7W1      -0.029800
      3 C02         -1.9570    -0.2670    -0.0060 ca         1 7W1      -0.243300
      4 C03         -1.4770    -1.5810     0.0740 ca         1 7W1       0.396900
      5 N04         -0.1660    -1.8940     0.0900 nb         1 7W1      -0.696000
      6 C05          0.7430    -0.8990     0.0250 ca         1 7W1       0.299000
      7 C06          2.1120    -1.2260     0.0410 ca         1 7W1      -0.092000
      8 C07          3.0980    -0.2290    -0.0260 ca         1 7W1      -0.096000
      9 C08          2.7210     1.1180    -0.1110 ca         1 7W1      -0.122000
     10 C09          1.3610     1.4670    -0.1280 ca         1 7W1      -0.086000
     11 C10          0.3610     0.4640    -0.0580 ca         1 7W1      -0.127000
     12 N12         -1.4650     2.0710    -0.1440 nv         1 7W1      -1.092000
     13 H011        -3.7740     0.5170    -0.9250 hc         1 7W1       0.036367
     14 H013        -4.0340    -0.9540     0.0170 hc         1 7W1       0.036367
     15 H012        -3.7760     0.5820     0.8490 hc         1 7W1       0.036367
     16 H031        -2.1670    -2.4230     0.1270 h4         1 7W1       0.012100
     17 H061         2.4100    -2.2690     0.1060 ha         1 7W1       0.130000
     18 H071         4.1520    -0.5010    -0.0120 ha         1 7W1       0.115000
     19 H081         3.4820     1.8940    -0.1650 ha         1 7W1       0.113000
     20 H091         1.1010     2.5190    -0.1990 ha         1 7W1       0.102000
     21 H121        -2.4510     2.2590     0.0190 hn         1 7W1       0.471000
     22 H122        -0.8160     2.8350     0.0230 hn         1 7W1       0.471000
@<TRIPOS>BOND
     1     1     3 ar  
     2     1    11 ar  
     3     1    12 1   
     4     2     3 1   
     5     2    13 1   
     6     2    14 1   
     7     2    15 1   
     8     3     4 ar  
     9     4     5 ar  
    10     4    16 1   
    11     5     6 ar  
    12     6     7 ar  
    13     6    11 ar  
    14     7     8 ar  
    15     7    17 1   
    16     8     9 ar  
    17     8    18 1   
    18     9    10 ar  
    19     9    19 1   
    20    10    11 ar  
    21    10    20 1   
    22    12    21 1   
    23    12    22 1   
@<TRIPOS>SUBSTRUCTURE
     1 7W1         1 TEMP              0 ****  ****    0 ROOT
