@<TRIPOS>MOLECULE
7W1
   22    23     1     0     0
SMALL
bcc


@<TRIPOS>ATOM
      1 C11         -1.0420     0.7900    -0.0570 ca         1 7W1       0.227600
      2 C01         -3.4260    -0.0230    -0.0280 c3         1 7W1      -0.029800
      3 C02         -1.9480    -0.2650    -0.0040 ca         1 7W1      -0.308600
      4 C03         -1.4360    -1.5660     0.0720 ca         1 7W1       0.462200
      5 N04         -0.1680    -1.8980     0.0940 nb         1 7W1      -0.696000
      6 C05          0.7300    -0.8880     0.0310 ca         1 7W1       0.429600
      7 C06          2.1060    -1.2180     0.0430 ca         1 7W1      -0.175300
      8 C07          3.0640    -0.2450    -0.0290 ca         1 7W1      -0.114000
      9 C08          2.6910     1.1100    -0.1180 ca         1 7W1      -0.140000
     10 C09          1.3670     1.4600    -0.1290 ca         1 7W1      -0.104000
     11 C10          0.3550     0.4760    -0.0500 ca         1 7W1      -0.192300
     12 N12         -1.4720     2.0720    -0.1600 nv         1 7W1      -0.843200
     13 H011        -3.7410     0.4720    -0.9500 hc         1 7W1       0.036367
     14 H013        -3.9750    -0.9610     0.0430 hc         1 7W1       0.036367
     15 H012        -3.7550     0.6070     0.8030 hc         1 7W1       0.036367
     16 H031        -2.1470    -2.3870     0.1210 h4         1 7W1       0.012100
     17 H061         2.3770    -2.2640     0.1090 ha         1 7W1       0.148000
     18 H071         4.1130    -0.5120    -0.0190 ha         1 7W1       0.133000
     19 H081         3.4520     1.8760    -0.1800 ha         1 7W1       0.131000
     20 H091         1.1140     2.5090    -0.2070 ha         1 7W1       0.120000
     21 H121        -2.4350     2.2700     0.0520 hn         1 7W1       0.415800
     22 H122        -0.8490     2.8260     0.0720 hn         1 7W1       0.415800
@<TRIPOS>BOND
     1     1     3 ar  
     2     1    11 ar  
     3     1    12 1   
     4     2     3 1   
     5     2    13 1   
     6     2    14 1   
     7     2    15 1   
     8     3     4 ar  
     9     4     5 ar  
    10     4    16 1   
    11     5     6 ar  
    12     6     7 ar  
    13     6    11 ar  
    14     7     8 ar  
    15     7    17 1   
    16     8     9 ar  
    17     8    18 1   
    18     9    10 ar  
    19     9    19 1   
    20    10    11 ar  
    21    10    20 1   
    22    12    21 1   
    23    12    22 1   
@<TRIPOS>SUBSTRUCTURE
     1 7W1         1 TEMP              0 ****  ****    0 ROOT
