@<TRIPOS>MOLECULE
7W2
   28    28     1     0     0
SMALL
bcc


@<TRIPOS>ATOM
      1 N          -14.2340    -6.8180    43.5120 n8         1 7W2      -0.900800
      2 C          -16.0920    -7.4400    41.9940 c          1 7W2       0.930600
      3 O          -16.7260    -6.5400    42.5820 o          1 7W2      -0.830800
      4 CA         -14.5670    -7.5190    42.2790 c3         1 7W2       0.019500
      5 CB         -14.0740    -8.9620    42.3310 c3         1 7W2      -0.042400
      6 CG         -12.5600    -9.0590    42.5320 c3         1 7W2      -0.056100
      7 CD         -12.1040   -10.4860    42.5510 ca         1 7W2       0.040700
      8 CE1        -11.7800   -11.1410    41.3650 ca         1 7W2      -0.202000
      9 CE2        -12.0480   -11.1930    43.7450 ca         1 7W2      -0.202000
     10 CZ1        -11.4070   -12.4630    41.4050 ca         1 7W2       0.210900
     11 CZ2        -11.6690   -12.5200    43.7480 ca         1 7W2       0.210900
     12 FZ1        -11.0910   -13.0690    40.2570 f          1 7W2      -0.130900
     13 FZ2        -11.6250   -13.1390    44.9280 f          1 7W2      -0.130900
     14 CH         -11.3360   -13.2060    42.5830 ca         1 7W2      -0.322300
     15 CT         -10.8970   -14.6380    42.5210 c3         1 7W2       0.744200
     16 FT1        -11.7000   -15.3700    41.7370 f          1 7W2      -0.234300
     17 FT2        -10.8760   -15.2330    43.7120 f          1 7W2      -0.234300
     18 FT3         -9.6620   -14.7440    42.0120 f          1 7W2      -0.234300
     19 H          -13.3180    -6.3960    43.4440 hn         1 7W2       0.330800
     20 H2         -14.9000    -6.0620    43.6180 hn         1 7W2       0.330800
     21 H5         -14.0850    -7.0480    41.4040 h1         1 7W2      -0.003300
     22 H6         -14.5790    -9.4910    43.1470 hc         1 7W2       0.053200
     23 H7         -14.3460    -9.4700    41.4050 hc         1 7W2       0.053200
     24 H8         -12.0520    -8.5220    41.7270 hc         1 7W2       0.049700
     25 H9         -12.2780    -8.5770    43.4710 hc         1 7W2       0.049700
     26 H10        -11.8120   -10.6210    40.4160 ha         1 7W2       0.165000
     27 H11        -12.2930   -10.7130    44.6840 ha         1 7W2       0.165000
     28 OXT        -16.5480    -8.2550    41.1700 o          1 7W2      -0.830800
@<TRIPOS>BOND
     1     1     4 1   
     2     1    19 1   
     3     1    20 1   
     4     2     3 1   
     5     2     4 1   
     6     2    28 1   
     7     4     5 1   
     8     4    21 1   
     9     5     6 1   
    10     5    22 1   
    11     5    23 1   
    12     6     7 1   
    13     6    24 1   
    14     6    25 1   
    15     7     8 ar  
    16     7     9 ar  
    17     8    10 ar  
    18     8    26 1   
    19     9    11 ar  
    20     9    27 1   
    21    10    12 1   
    22    10    14 ar  
    23    11    13 1   
    24    11    14 ar  
    25    14    15 1   
    26    15    16 1   
    27    15    17 1   
    28    15    18 1   
@<TRIPOS>SUBSTRUCTURE
     1 7W2         1 TEMP              0 ****  ****    0 ROOT
