@<TRIPOS>MOLECULE
7W4
   20    21     1     0     0
SMALL
abcg2


@<TRIPOS>ATOM
      1 C01        -21.2620     3.9530     4.3140 c3         1 7W4      -0.017900
      2 C02        -19.8460     3.5000     4.3790 cc         1 7W4       0.114400
      3 N03        -19.0900     3.3240     3.2480 nc         1 7W4      -0.299600
      4 C04        -17.8900     2.9210     3.6630 cd         1 7W4      -0.062000
      5 C05        -16.7210     2.5970     2.9490 cd         1 7W4      -0.075000
      6 C06        -15.6000     2.2070     3.6350 cc         1 7W4      -0.104000
      7 C07        -15.6150     2.1280     5.0510 cc         1 7W4      -0.145000
      8 C08        -16.7450     2.4410     5.7450 cd         1 7W4      -0.114000
      9 N09        -17.8590     2.8310     5.0570 na         1 7W4       0.088100
     10 C10        -19.1200     3.2060     5.5150 cd         1 7W4      -0.039100
     11 N11        -19.4840     3.2490     6.8660 nv         1 7W4      -0.874000
     12 H1         -21.8710     3.2430     3.7490 hc         1 7W4       0.051367
     13 H2         -21.6820     4.0490     5.3140 hc         1 7W4       0.051367
     14 H3         -21.3370     4.9200     3.8100 hc         1 7W4       0.051367
     15 H4         -16.7370     2.6660     1.8690 ha         1 7W4       0.143000
     16 H5         -14.6950     1.9570     3.0980 ha         1 7W4       0.124000
     17 H6         -14.7320     1.8200     5.5940 ha         1 7W4       0.129000
     18 H7         -16.8310     2.4040     6.8210 h4         1 7W4       0.135000
     19 H8         -19.4530     2.3400     7.3160 hn         1 7W4       0.422000
     20 H9         -18.9140     3.8900     7.4090 hn         1 7W4       0.422000
@<TRIPOS>BOND
     1     1     2 1   
     2     1    12 1   
     3     1    13 1   
     4     1    14 1   
     5     2     3 1   
     6     2    10 2   
     7     3     4 2   
     8     4     5 1   
     9     4     9 1   
    10     5     6 2   
    11     5    15 1   
    12     6     7 1   
    13     6    16 1   
    14     7     8 2   
    15     7    17 1   
    16     8     9 1   
    17     8    18 1   
    18     9    10 1   
    19    10    11 1   
    20    11    19 1   
    21    11    20 1   
@<TRIPOS>SUBSTRUCTURE
     1 7W4         1 TEMP              0 ****  ****    0 ROOT
