@<TRIPOS>MOLECULE
7W4
   20    21     1     0     0
SMALL
No Charge or Current Charge


@<TRIPOS>ATOM
      1 C01        -21.2400     3.8870     4.3420 c3         1 7W4      -0.017900
      2 C02        -19.7980     3.4630     4.4170 cc         1 7W4       0.114400
      3 N03        -19.0290     3.3730     3.2700 nc         1 7W4      -0.299600
      4 C04        -17.8330     2.9810     3.6760 cd         1 7W4      -0.062000
      5 C05        -16.6740     2.7380     2.8800 cd         1 7W4      -0.075000
      6 C06        -15.5520     2.3340     3.5720 cc         1 7W4      -0.104000
      7 C07        -15.5850     2.1790     5.0070 cc         1 7W4      -0.145000
      8 C08        -16.7190     2.4180     5.7780 cd         1 7W4      -0.114000
      9 N09        -17.8360     2.8250     5.0370 na         1 7W4       0.088100
     10 C10        -19.0790     3.1250     5.5510 cd         1 7W4      -0.039100
     11 N11        -19.4210     3.0690     6.8920 nv         1 7W4      -0.874000
     12 H1         -21.8950     3.1020     4.7360 hc         1 7W4       0.051367
     13 H2         -21.4060     4.7960     4.9320 hc         1 7W4       0.051367
     14 H3         -21.5450     4.0950     3.3100 hc         1 7W4       0.051367
     15 H4         -16.6750     2.8620     1.8010 ha         1 7W4       0.143000
     16 H5         -14.6260     2.1280     3.0430 ha         1 7W4       0.124000
     17 H6         -14.6700     1.8580     5.4980 ha         1 7W4       0.129000
     18 H7         -16.7950     2.3160     6.8530 h4         1 7W4       0.135000
     19 H8         -20.3620     3.3050     7.2070 hn         1 7W4       0.422000
     20 H9         -18.7440     2.7930     7.6010 hn         1 7W4       0.422000
@<TRIPOS>BOND
     1     1     2 1   
     2     1    12 1   
     3     1    13 1   
     4     1    14 1   
     5     2     3 1   
     6     2    10 2   
     7     3     4 2   
     8     4     5 1   
     9     4     9 1   
    10     5     6 2   
    11     5    15 1   
    12     6     7 1   
    13     6    16 1   
    14     7     8 2   
    15     7    17 1   
    16     8     9 1   
    17     8    18 1   
    18     9    10 1   
    19    10    11 1   
    20    11    19 1   
    21    11    20 1   
@<TRIPOS>SUBSTRUCTURE
     1 7W4         1 TEMP              0 ****  ****    0 ROOT
