@<TRIPOS>MOLECULE
7W7
   38    40     1     0     0
SMALL
abcg2


@<TRIPOS>ATOM
      1 C1           1.5150     1.2080    -0.0190 ca         1 7W7      -0.062300
      2 C2           2.0380     1.6340     1.2130 ca         1 7W7      -0.111000
      3 C3           3.0940     0.9840     1.8300 ca         1 7W7      -0.110000
      4 C11         -1.0060     1.4890    -0.0890 c6         1 7W7      -0.069700
      5 C12         -1.2650    -0.0040    -0.2710 c6         1 7W7       0.221800
      6 C14         -3.6610     0.3520    -0.4170 c6         1 7W7       0.220800
      7 C15         -3.4910     1.8520    -0.2320 c6         1 7W7      -0.084400
      8 C16         -2.1250     2.3050    -0.7300 c6         1 7W7      -0.073400
      9 C17         -2.7460    -1.6050     0.7980 c2         1 7W7       0.803100
     10 C4           3.6970    -0.1410     1.2530 ca         1 7W7      -0.098000
     11 C5           3.1820    -0.5540     0.0490 ca         1 7W7       0.058100
     12 C6           2.1270     0.1030    -0.5650 ca         1 7W7       0.056100
     13 O7           3.5840    -1.5880    -0.7330 os         1 7W7      -0.345100
     14 C8           2.5950    -1.7160    -1.7450 c5         1 7W7       0.371600
     15 O9           1.8500    -0.5080    -1.7480 os         1 7W7      -0.346100
     16 C10          0.3520     1.9000    -0.6680 c3         1 7W7      -0.019100
     17 N13         -2.5750    -0.3630     0.2340 nh         1 7W7      -0.766600
     18 N18         -1.7720    -2.4400     0.8510 n2         1 7W7      -0.896100
     19 N19         -4.0220    -1.8620     1.2630 nv         1 7W7      -1.062200
     20 H1           1.5980     2.5010     1.6900 ha         1 7W7       0.116000
     21 H2           3.4630     1.3490     2.7800 ha         1 7W7       0.117000
     22 H3          -0.9980     1.6950     0.9890 hc         1 7W7       0.056700
     23 H4          -1.1770    -0.2650    -1.3370 h1         1 7W7       0.061200
     24 H5          -0.5200    -0.5920     0.2600 h1         1 7W7       0.061200
     25 H6          -4.6240     0.0360    -0.0250 h1         1 7W7       0.041700
     26 H7          -3.6700     0.1170    -1.4910 h1         1 7W7       0.041700
     27 H8          -4.2870     2.3720    -0.7690 hc         1 7W7       0.045700
     28 H9          -3.6050     2.0970     0.8280 hc         1 7W7       0.045700
     29 H10         -1.9790     3.3700    -0.5290 hc         1 7W7       0.040700
     30 H11         -2.0770     2.1840    -1.8190 hc         1 7W7       0.040700
     31 H12          4.5220    -0.6530     1.7300 ha         1 7W7       0.133000
     32 H13          3.0720    -1.8590    -2.7130 h2         1 7W7       0.066200
     33 H14          0.4650     2.9800    -0.5410 hc         1 7W7       0.053700
     34 H15          0.3530     1.7180    -1.7460 hc         1 7W7       0.053700
     35 H16         -2.0350    -3.2510     1.3990 hn         1 7W7       0.374400
     36 H17         -4.0900    -2.6830     1.8430 hn         1 7W7       0.449000
     37 H18         -4.5160    -1.0860     1.6770 hn         1 7W7       0.449000
     38 H19          1.9350    -2.5610    -1.5150 h2         1 7W7       0.066200
@<TRIPOS>BOND
     1     1     2 ar  
     2     1    12 ar  
     3     1    16 1   
     4     2     3 ar  
     5     2    20 1   
     6     3    10 ar  
     7     3    21 1   
     8     4     5 1   
     9     4     8 1   
    10     4    16 1   
    11     4    22 1   
    12     5    17 1   
    13     5    23 1   
    14     5    24 1   
    15     6     7 1   
    16     6    17 1   
    17     6    25 1   
    18     6    26 1   
    19     7     8 1   
    20     7    27 1   
    21     7    28 1   
    22     8    29 1   
    23     8    30 1   
    24     9    17 1   
    25     9    18 2   
    26     9    19 1   
    27    10    11 ar  
    28    10    31 1   
    29    11    12 ar  
    30    11    13 1   
    31    12    15 1   
    32    13    14 1   
    33    14    15 1   
    34    14    32 1   
    35    14    38 1   
    36    16    33 1   
    37    16    34 1   
    38    18    35 1   
    39    19    36 1   
    40    19    37 1   
@<TRIPOS>SUBSTRUCTURE
     1 7W7         1 TEMP              0 ****  ****    0 ROOT
