@<TRIPOS>MOLECULE
7W7
   38    40     1     0     0
SMALL
No Charge or Current Charge


@<TRIPOS>ATOM
      1 C1           1.5080     1.2010     0.0270 ca         1 7W7      -0.062300
      2 C2           1.9930     1.7110     1.2530 ca         1 7W7      -0.111000
      3 C3           3.0600     1.0720     1.9280 ca         1 7W7      -0.110000
      4 C11         -1.0470     1.5020    -0.1410 c6         1 7W7      -0.069700
      5 C12         -1.3210    -0.0270    -0.2500 c6         1 7W7       0.221800
      6 C14         -3.7680     0.3690    -0.3900 c6         1 7W7       0.220800
      7 C15         -3.5460     1.8960    -0.2760 c6         1 7W7      -0.084400
      8 C16         -2.1700     2.3050    -0.8430 c6         1 7W7      -0.073400
      9 C17         -2.9100    -1.6920     0.5470 c2         1 7W7       0.803100
     10 C4           3.6530    -0.0870     1.3850 ca         1 7W7      -0.098000
     11 C5           3.1500    -0.5760     0.1740 ca         1 7W7       0.058100
     12 C6           2.1200     0.0410    -0.4810 ca         1 7W7       0.056100
     13 O7           3.6050    -1.6710    -0.4870 os         1 7W7      -0.345100
     14 C8           2.6700    -1.7770    -1.6180 c5         1 7W7       0.371600
     15 O9           1.7950    -0.5940    -1.6390 os         1 7W7      -0.346100
     16 C10          0.3550     1.8840    -0.7010 c3         1 7W7      -0.019100
     17 N13         -2.6730    -0.4010     0.2580 nh         1 7W7      -0.766600
     18 N18         -2.5160    -2.6430    -0.1610 n2         1 7W7      -0.896100
     19 N19         -3.4850    -1.8320     1.7190 nv         1 7W7      -1.062200
     20 H1           1.5440     2.6030     1.6850 ha         1 7W7       0.116000
     21 H2           3.4250     1.4770     2.8690 ha         1 7W7       0.117000
     22 H3          -1.0410     1.7730     0.9240 hc         1 7W7       0.056700
     23 H4          -1.2060    -0.3490    -1.2960 h1         1 7W7       0.061200
     24 H5          -0.5540    -0.5580     0.3330 h1         1 7W7       0.061200
     25 H6          -4.7310     0.1270     0.0830 h1         1 7W7       0.041700
     26 H7          -3.8500     0.0840    -1.4490 h1         1 7W7       0.041700
     27 H8          -4.3450     2.4270    -0.8100 hc         1 7W7       0.045700
     28 H9          -3.6180     2.1990     0.7770 hc         1 7W7       0.045700
     29 H10         -2.0140     3.3840    -0.7000 hc         1 7W7       0.040700
     30 H11         -2.1450     2.1210    -1.9260 hc         1 7W7       0.040700
     31 H12          4.4750    -0.5880     1.8900 ha         1 7W7       0.133000
     32 H13          3.2310    -1.8390    -2.5580 h2         1 7W7       0.066200
     33 H14          0.4880     2.9710    -0.6330 hc         1 7W7       0.053700
     34 H15          0.3990     1.6540    -1.7720 hc         1 7W7       0.053700
     35 H16         -2.8190    -3.5030     0.3050 hn         1 7W7       0.374400
     36 H17         -3.0400    -2.5450     2.2780 hn         1 7W7       0.449000
     37 H18         -3.5240    -0.9300     2.1700 hn         1 7W7       0.449000
     38 H19          2.0530    -2.6730    -1.4880 h2         1 7W7       0.066200
@<TRIPOS>BOND
     1     1     2 ar  
     2     1    12 ar  
     3     1    16 1   
     4     2     3 ar  
     5     2    20 1   
     6     3    10 ar  
     7     3    21 1   
     8     4     5 1   
     9     4     8 1   
    10     4    16 1   
    11     4    22 1   
    12     5    17 1   
    13     5    23 1   
    14     5    24 1   
    15     6     7 1   
    16     6    17 1   
    17     6    25 1   
    18     6    26 1   
    19     7     8 1   
    20     7    27 1   
    21     7    28 1   
    22     8    29 1   
    23     8    30 1   
    24     9    17 1   
    25     9    18 2   
    26     9    19 1   
    27    10    11 ar  
    28    10    31 1   
    29    11    12 ar  
    30    11    13 1   
    31    12    15 1   
    32    13    14 1   
    33    14    15 1   
    34    14    32 1   
    35    14    38 1   
    36    16    33 1   
    37    16    34 1   
    38    18    35 1   
    39    19    36 1   
    40    19    37 1   
@<TRIPOS>SUBSTRUCTURE
     1 7W7         1 TEMP              0 ****  ****    0 ROOT
