@<TRIPOS>MOLECULE
7WA
   17    18     1     0     0
SMALL
No Charge or Current Charge


@<TRIPOS>ATOM
      1 C10          0.1950     0.4730    -0.0210 ca         1 7WA       0.001400
      2 N01         -1.7240     1.9670    -0.0640 nv         1 7WA      -1.059000
      3 C02         -1.2030     0.6980    -0.0340 ca         1 7WA       0.358000
      4 C03         -2.0610    -0.4190    -0.0120 ca         1 7WA      -0.224000
      5 C04         -1.5340    -1.7320     0.0200 ca         1 7WA      -0.044000
      6 C05         -0.1390    -1.9350     0.0320 ca         1 7WA      -0.171000
      7 C06          0.6820    -0.8030     0.0110 ca         1 7WA      -0.038200
      8 N07          2.0390    -0.7090     0.0190 na         1 7WA      -0.319600
      9 C08          2.3600     0.6460    -0.0060 cc         1 7WA       0.401700
     10 N09          1.2440     1.4060    -0.0300 nd         1 7WA      -0.575100
     11 H1          -1.0820     2.7410     0.0920 hn         1 7WA       0.458000
     12 H2          -2.7010     2.1130     0.1780 hn         1 7WA       0.458000
     13 H3          -3.1380    -0.2750    -0.0220 ha         1 7WA       0.112000
     14 H4          -2.2060    -2.5880     0.0360 ha         1 7WA       0.108000
     15 H5           0.2820    -2.9380     0.0580 ha         1 7WA       0.118000
     16 H6           2.7030    -1.4720     0.0410 hn         1 7WA       0.355000
     17 H7           3.3840     1.0030    -0.0050 h5         1 7WA       0.059800
@<TRIPOS>BOND
     1     1     3 ar  
     2     1     7 ar  
     3     1    10 1   
     4     2     3 1   
     5     2    11 1   
     6     2    12 1   
     7     3     4 ar  
     8     4     5 ar  
     9     4    13 1   
    10     5     6 ar  
    11     5    14 1   
    12     6     7 ar  
    13     6    15 1   
    14     7     8 1   
    15     8     9 1   
    16     8    16 1   
    17     9    10 2   
    18     9    17 1   
@<TRIPOS>SUBSTRUCTURE
     1 7WA         1 TEMP              0 ****  ****    0 ROOT
