@<TRIPOS>MOLECULE
7WA
   17    18     1     0     0
SMALL
bcc


@<TRIPOS>ATOM
      1 C10          0.1780     0.4620    -0.0290 ca         1 7WA       0.001400
      2 N01         -1.6850     1.9910    -0.1410 nv         1 7WA      -0.810200
      3 C02         -1.2060     0.7060    -0.0440 ca         1 7WA       0.219600
      4 C03         -2.0300    -0.4170    -0.0140 ca         1 7WA      -0.242000
      5 C04         -1.5040    -1.7160     0.0230 ca         1 7WA      -0.062000
      6 C05         -0.1450    -1.9730     0.0360 ca         1 7WA      -0.189000
      7 C06          0.6770    -0.8460     0.0110 ca         1 7WA      -0.038200
      8 N07          2.0370    -0.6860     0.0180 na         1 7WA      -0.269300
      9 C08          2.2900     0.6460    -0.0130 cc         1 7WA       0.401700
     10 N09          1.2100     1.3720    -0.0440 nd         1 7WA      -0.575100
     11 H1          -1.0650     2.7090     0.1970 hn         1 7WA       0.402800
     12 H2          -2.6340     2.1310     0.1670 hn         1 7WA       0.402800
     13 H3          -3.1060    -0.2860    -0.0220 ha         1 7WA       0.130000
     14 H4          -2.1970    -2.5480     0.0430 ha         1 7WA       0.126000
     15 H5           0.2490    -2.9790     0.0650 ha         1 7WA       0.136000
     16 H6           2.7300    -1.4150     0.0520 hn         1 7WA       0.304700
     17 H7           3.3010     1.0260    -0.0120 h5         1 7WA       0.059800
@<TRIPOS>BOND
     1     1     3 ar  
     2     1     7 ar  
     3     1    10 1   
     4     2     3 1   
     5     2    11 1   
     6     2    12 1   
     7     3     4 ar  
     8     4     5 ar  
     9     4    13 1   
    10     5     6 ar  
    11     5    14 1   
    12     6     7 ar  
    13     6    15 1   
    14     7     8 1   
    15     8     9 1   
    16     8    16 1   
    17     9    10 2   
    18     9    17 1   
@<TRIPOS>SUBSTRUCTURE
     1 7WA         1 TEMP              0 ****  ****    0 ROOT
