@<TRIPOS>MOLECULE
7WB
   22    24     1     0     0
SMALL
bcc


@<TRIPOS>ATOM
      1 NAH         -1.7060    -1.3460     0.0370 na         1 7WB      -0.221100
      2 CAC         -3.0570    -1.6010     0.0270 cc         1 7WB      -0.069300
      3 CAD         -3.7930    -0.4850    -0.0290 cd         1 7WB      -0.150100
      4 SAJ         -2.7740     0.9200    -0.0730 ss         1 7WB      -0.100800
      5 CAK         -1.3430    -0.0540    -0.0080 cc         1 7WB       0.208600
      6 CAL         -0.0490     0.4480    -0.0050 cd         1 7WB      -0.312800
      7 CAN          1.2160    -0.2390     0.0110 ca         1 7WB      -0.071800
      8 CAG          1.6410    -1.5690     0.0200 ca         1 7WB      -0.126000
      9 CAB          3.0000    -1.8410     0.0330 ca         1 7WB      -0.129000
     10 CAA          3.9430    -0.8080     0.0350 ca         1 7WB      -0.145000
     11 CAF          3.5410     0.5170     0.0200 ca         1 7WB      -0.079000
     12 CAM          2.1790     0.8020     0.0090 ca         1 7WB       0.085400
     13 NAI          1.5900     2.0490    -0.0060 nc         1 7WB      -0.555100
     14 CAE          0.3010     1.8320    -0.0150 cd         1 7WB       0.450500
     15 HAH         -1.0300    -2.0920     0.0960 hn         1 7WB       0.318700
     16 HAC         -3.4020    -2.6200     0.0650 h4         1 7WB       0.185000
     17 HAD         -4.8660    -0.3950    -0.0470 h4         1 7WB       0.190000
     18 HAE         -0.4020     2.6590    -0.0250 h4         1 7WB       0.026800
     19 HAG          0.9500    -2.4030     0.0120 ha         1 7WB       0.103000
     20 HAB          3.3350    -2.8700     0.0400 ha         1 7WB       0.123000
     21 HAA          4.9990    -1.0490     0.0450 ha         1 7WB       0.127000
     22 HAF          4.2670     1.3200     0.0150 ha         1 7WB       0.142000
@<TRIPOS>BOND
     1     1     2 1   
     2     1     5 1   
     3     1    15 1   
     4     2     3 2   
     5     2    16 1   
     6     3     4 1   
     7     3    17 1   
     8     4     5 1   
     9     5     6 2   
    10     6     7 1   
    11     6    14 1   
    12     7     8 ar  
    13     7    12 ar  
    14     8     9 ar  
    15     8    19 1   
    16     9    10 ar  
    17     9    20 1   
    18    10    11 ar  
    19    10    21 1   
    20    11    12 ar  
    21    11    22 1   
    22    12    13 1   
    23    13    14 2   
    24    14    18 1   
@<TRIPOS>SUBSTRUCTURE
     1 7WB         1 TEMP              0 ****  ****    0 ROOT
