@<TRIPOS>MOLECULE
7WB
   22    24     1     0     0
SMALL
No Charge or Current Charge


@<TRIPOS>ATOM
      1 NAH         -1.6050    -1.3710     0.0160 na         1 7WB      -0.170000
      2 CAC         -2.9780    -1.6370     0.0130 cc         1 7WB      -0.102000
      3 CAD         -3.7200    -0.4630    -0.0090 cd         1 7WB      -0.277000
      4 SAJ         -2.7670     1.0180    -0.0270 ss         1 7WB       0.189000
      5 CAK         -1.3740    -0.0160    -0.0040 cc         1 7WB       0.013000
      6 CAL         -0.0630     0.4370    -0.0040 cd         1 7WB      -0.312800
      7 CAN          1.2090    -0.2300     0.0130 ca         1 7WB      -0.071800
      8 CAG          1.5890    -1.5830     0.0370 ca         1 7WB      -0.108000
      9 CAB          2.9660    -1.8780     0.0490 ca         1 7WB      -0.111000
     10 CAA          3.9200    -0.8360     0.0370 ca         1 7WB      -0.127000
     11 CAF          3.5050     0.5120     0.0140 ca         1 7WB      -0.061000
     12 CAM          2.1320     0.8040     0.0020 ca         1 7WB       0.085400
     13 NAI          1.5630     2.0900    -0.0210 nc         1 7WB      -0.555100
     14 CAE          0.2430     1.8360    -0.0240 cd         1 7WB       0.450500
     15 HAH         -0.8770    -2.0740     0.0310 hn         1 7WB       0.369000
     16 HAC         -3.3380    -2.6610     0.0270 h4         1 7WB       0.167000
     17 HAD         -4.8000    -0.3810    -0.0160 h4         1 7WB       0.172000
     18 HAE         -0.4450     2.6720    -0.0410 h4         1 7WB       0.026800
     19 HAG          0.8650    -2.3900     0.0450 ha         1 7WB       0.085000
     20 HAB          3.2970    -2.9150     0.0670 ha         1 7WB       0.105000
     21 HAA          4.9810    -1.0740     0.0470 ha         1 7WB       0.109000
     22 HAF          4.2370     1.3160     0.0050 ha         1 7WB       0.124000
@<TRIPOS>BOND
     1     1     2 1   
     2     1     5 1   
     3     1    15 1   
     4     2     3 2   
     5     2    16 1   
     6     3     4 1   
     7     3    17 1   
     8     4     5 1   
     9     5     6 2   
    10     6     7 1   
    11     6    14 1   
    12     7     8 ar  
    13     7    12 ar  
    14     8     9 ar  
    15     8    19 1   
    16     9    10 ar  
    17     9    20 1   
    18    10    11 ar  
    19    10    21 1   
    20    11    12 ar  
    21    11    22 1   
    22    12    13 1   
    23    13    14 2   
    24    14    18 1   
@<TRIPOS>SUBSTRUCTURE
     1 7WB         1 TEMP              0 ****  ****    0 ROOT
