@<TRIPOS>MOLECULE
7WD
   37    40     1     0     0
SMALL
abcg2


@<TRIPOS>ATOM
      1 C1           3.4430    -0.6530    -0.4580 ca         1 7WD       0.058100
      2 C2           2.5090     0.2250     0.0650 ca         1 7WD       0.052100
      3 C3           1.6690    -0.1070     1.1050 ca         1 7WD      -0.068300
      4 C11         -0.5810     1.0010     0.7200 c6         1 7WD      -0.072700
      5 C12         -1.5980     1.9690     1.3190 c6         1 7WD      -0.077400
      6 C13         -2.7250     2.2440     0.3260 c6         1 7WD       0.006900
      7 C14         -3.2710     0.9680    -0.2170 cc         1 7WD      -0.203300
      8 C16         -1.2340    -0.3550     0.4660 c6         1 7WD       0.077600
      9 C17         -4.4250     0.6170    -0.8460 cd         1 7WD       0.252900
     10 C19         -3.2700    -1.1710    -0.7410 cc         1 7WD       0.606400
     11 C4           1.8250    -1.4090     1.6060 ca         1 7WD      -0.115000
     12 C5           2.7550    -2.2940     1.0840 ca         1 7WD      -0.108000
     13 C6           3.5950    -1.9290     0.0260 ca         1 7WD      -0.094000
     14 O7           4.1040    -0.0500    -1.4790 os         1 7WD      -0.342100
     15 C8           3.7270     1.3190    -1.4320 c5         1 7WD       0.371600
     16 O9           2.5640     1.3980    -0.6210 os         1 7WD      -0.346100
     17 C10          0.6370     0.8440     1.6350 c3         1 7WD      -0.018100
     18 N15         -2.5250    -0.1950    -0.1720 na         1 7WD      -0.184500
     19 N18         -4.4210    -0.7210    -1.1670 nd         1 7WD      -0.720000
     20 N20         -2.7860    -2.4560    -0.8920 nv         1 7WD      -1.005900
     21 H1          -0.2490     1.4100    -0.2420 hc         1 7WD       0.075700
     22 H2          -1.9980     1.5510     2.2490 hc         1 7WD       0.047200
     23 H3          -1.1070     2.9080     1.5810 hc         1 7WD       0.047200
     24 H4          -3.5220     2.8250     0.7930 hc         1 7WD       0.055700
     25 H5          -2.3290     2.8580    -0.4880 hc         1 7WD       0.055700
     26 H6          -0.6010    -0.9780    -0.1680 h1         1 7WD       0.055700
     27 H7          -1.3600    -0.8820     1.4190 h1         1 7WD       0.055700
     28 H8          -5.2630     1.2540    -1.0870 h4         1 7WD       0.034100
     29 H9           1.1980    -1.7240     2.4320 ha         1 7WD       0.116000
     30 H10          2.8400    -3.2870     1.5050 ha         1 7WD       0.121000
     31 H11          4.3220    -2.6160    -0.3860 ha         1 7WD       0.136000
     32 H12          4.5330     1.9120    -0.9860 h2         1 7WD       0.065700
     33 H13          0.3030     0.5000     2.6180 hc         1 7WD       0.055200
     34 H14          1.0810     1.8320     1.7880 hc         1 7WD       0.055200
     35 H15         -2.3860    -2.8530    -0.0540 hn         1 7WD       0.444500
     36 H16         -3.4990    -3.0750    -1.2480 hn         1 7WD       0.444500
     37 H17          3.5020     1.6760    -2.4370 h2         1 7WD       0.065700
@<TRIPOS>BOND
     1     1     2 ar  
     2     1    13 ar  
     3     1    14 1   
     4     2     3 ar  
     5     2    16 1   
     6     3    11 ar  
     7     3    17 1   
     8     4     5 1   
     9     4     8 1   
    10     4    17 1   
    11     4    21 1   
    12     5     6 1   
    13     5    22 1   
    14     5    23 1   
    15     6     7 1   
    16     6    24 1   
    17     6    25 1   
    18     7     9 2   
    19     7    18 1   
    20     8    18 1   
    21     8    26 1   
    22     8    27 1   
    23     9    19 1   
    24     9    28 1   
    25    10    18 1   
    26    10    19 2   
    27    10    20 1   
    28    11    12 ar  
    29    11    29 1   
    30    12    13 ar  
    31    12    30 1   
    32    13    31 1   
    33    14    15 1   
    34    15    16 1   
    35    15    32 1   
    36    15    37 1   
    37    17    33 1   
    38    17    34 1   
    39    20    35 1   
    40    20    36 1   
@<TRIPOS>SUBSTRUCTURE
     1 7WD         1 TEMP              0 ****  ****    0 ROOT
