@<TRIPOS>MOLECULE
7WD
   37    40     1     0     0
SMALL
No Charge or Current Charge


@<TRIPOS>ATOM
      1 C1           3.5280    -0.6040    -0.4130 ca         1 7WD       0.058100
      2 C2           2.5850     0.2500     0.0910 ca         1 7WD       0.052100
      3 C3           1.7260    -0.1300     1.1370 ca         1 7WD      -0.068300
      4 C11         -0.5740     0.9670     0.7530 c6         1 7WD      -0.072700
      5 C12         -1.5990     2.0010     1.3210 c6         1 7WD      -0.077400
      6 C13         -2.7710     2.2570     0.3330 c6         1 7WD       0.006900
      7 C14         -3.2550     0.9440    -0.2280 cc         1 7WD      -0.203300
      8 C16         -1.2520    -0.4130     0.4850 c6         1 7WD       0.077600
      9 C17         -4.4280     0.6600    -0.8900 cd         1 7WD       0.252900
     10 C19         -3.3440    -1.1690    -0.8060 cc         1 7WD       0.606400
     11 C4           1.8720    -1.4350     1.6620 ca         1 7WD      -0.115000
     12 C5           2.8490    -2.3160     1.1390 ca         1 7WD      -0.108000
     13 C6           3.6910    -1.9010     0.0860 ca         1 7WD      -0.094000
     14 O7           4.2440    -0.0500    -1.4240 os         1 7WD      -0.342100
     15 C8           3.7060     1.3180    -1.4930 c5         1 7WD       0.371600
     16 O9           2.5900     1.4520    -0.5440 os         1 7WD      -0.346100
     17 C10          0.6670     0.8230     1.6820 c3         1 7WD      -0.018100
     18 N15         -2.5580    -0.2350    -0.1800 na         1 7WD      -0.184500
     19 N18         -4.4700    -0.6800    -1.2460 nd         1 7WD      -0.720000
     20 N20         -3.0260    -2.4620    -0.9410 nv         1 7WD      -1.005900
     21 H1          -0.2020     1.3550    -0.2060 hc         1 7WD       0.075700
     22 H2          -2.0010     1.6290     2.2740 hc         1 7WD       0.047200
     23 H3          -1.0980     2.9520     1.5460 hc         1 7WD       0.047200
     24 H4          -3.5810     2.7960     0.8430 hc         1 7WD       0.055700
     25 H5          -2.4280     2.9100    -0.4820 hc         1 7WD       0.055700
     26 H6          -0.6010    -1.0390    -0.1420 h1         1 7WD       0.055700
     27 H7          -1.4170    -0.9380     1.4370 h1         1 7WD       0.055700
     28 H8          -5.2380     1.3400    -1.1280 h4         1 7WD       0.034100
     29 H9           1.2280    -1.7720     2.4710 ha         1 7WD       0.116000
     30 H10          2.9500    -3.3180     1.5500 ha         1 7WD       0.121000
     31 H11          4.4440    -2.5670    -0.3280 ha         1 7WD       0.136000
     32 H12          4.4960     2.0280    -1.2210 h2         1 7WD       0.065700
     33 H13          0.3440     0.4900     2.6760 hc         1 7WD       0.055200
     34 H14          1.1220     1.8090     1.8390 hc         1 7WD       0.055200
     35 H15         -2.3120    -2.8340    -0.3270 hn         1 7WD       0.444500
     36 H16         -3.7810    -3.0850    -1.2020 hn         1 7WD       0.444500
     37 H17          3.3510     1.5220    -2.5100 h2         1 7WD       0.065700
@<TRIPOS>BOND
     1     1     2 ar  
     2     1    13 ar  
     3     1    14 1   
     4     2     3 ar  
     5     2    16 1   
     6     3    11 ar  
     7     3    17 1   
     8     4     5 1   
     9     4     8 1   
    10     4    17 1   
    11     4    21 1   
    12     5     6 1   
    13     5    22 1   
    14     5    23 1   
    15     6     7 1   
    16     6    24 1   
    17     6    25 1   
    18     7     9 2   
    19     7    18 1   
    20     8    18 1   
    21     8    26 1   
    22     8    27 1   
    23     9    19 1   
    24     9    28 1   
    25    10    18 1   
    26    10    19 2   
    27    10    20 1   
    28    11    12 ar  
    29    11    29 1   
    30    12    13 ar  
    31    12    30 1   
    32    13    31 1   
    33    14    15 1   
    34    15    16 1   
    35    15    32 1   
    36    15    37 1   
    37    17    33 1   
    38    17    34 1   
    39    20    35 1   
    40    20    36 1   
@<TRIPOS>SUBSTRUCTURE
     1 7WD         1 TEMP              0 ****  ****    0 ROOT
