@<TRIPOS>MOLECULE
7WE
   37    38     1     0     0
SMALL
No Charge or Current Charge


@<TRIPOS>ATOM
      1 C10          5.3480     0.5120    -1.7700 ca         1 7WE      -0.094300
      2 C11          5.0650     0.5070    -3.2700 c3         1 7WE       0.208100
      3 C13          3.3540     0.5840    -5.0380 c3         1 7WE       0.146100
      4 C14          3.0230    -0.8840    -3.0930 c3         1 7WE       0.146100
      5 C15          4.9440     1.6040    -0.9790 ca         1 7WE      -0.072500
      6 C16          5.2030     1.6120     0.4040 ca         1 7WE      -0.142000
      7 C17          5.5130    -1.7050     3.1380 cc         1 7WE       0.315500
      8 C02          6.7150    -1.2660     5.6340 c          1 7WE       0.563200
      9 C03          6.7180    -0.1970     4.6030 cd         1 7WE      -0.129200
     10 C05          6.1360    -0.4140     3.3740 cc         1 7WE       0.147400
     11 C07          5.8590     0.5290     1.0100 ca         1 7WE       0.286000
     12 C08          6.2770    -0.5550     0.2180 ca         1 7WE      -0.142000
     13 C09          6.0210    -0.5670    -1.1650 ca         1 7WE      -0.072500
     14 N06          6.1160     0.5640     2.3820 nu         1 7WE      -0.836000
     15 N12          3.6240     0.3730    -3.5980 n3         1 7WE      -0.713600
     16 N18          5.4530    -2.7310     3.9900 nd         1 7WE      -0.393300
     17 N19          6.0690    -2.4640     5.2170 n          1 7WE      -0.141800
     18 Cl04         7.4870     1.3140     5.0310 cl         1 7WE      -0.159000
     19 H1           5.6340    -0.3060    -3.7430 h1         1 7WE       0.040200
     20 H2           5.4540     1.4470    -3.6860 h1         1 7WE       0.040200
     21 H3           3.7350     1.5610    -5.3660 h1         1 7WE       0.033367
     22 H4           3.8340    -0.1950    -5.6450 h1         1 7WE       0.033367
     23 H5           2.2740     0.5600    -5.2380 h1         1 7WE       0.033367
     24 H6           3.1300    -0.9630    -2.0030 h1         1 7WE       0.033367
     25 H7           1.9510    -0.9210    -3.3250 h1         1 7WE       0.033367
     26 H8           3.5040    -1.7590    -3.5510 h1         1 7WE       0.033367
     27 H9           4.4240     2.4430    -1.4370 ha         1 7WE       0.122500
     28 H10          4.8830     2.4590     1.0040 ha         1 7WE       0.123000
     29 H11          5.0210    -1.9220     2.2010 h4         1 7WE       0.055800
     30 H12          5.4960    -4.4530     5.7290 h1         1 7WE       0.058700
     31 H13          7.0310    -3.8950     6.4460 h1         1 7WE       0.058700
     32 H14          5.4740    -3.2840     7.0770 h1         1 7WE       0.058700
     33 H15          6.8150    -1.3840     0.6680 ha         1 7WE       0.123000
     34 H16          6.3480    -1.4140    -1.7650 ha         1 7WE       0.122500
     35 H17          6.2750     1.5060     2.7500 hn         1 7WE       0.513000
     36 O01          7.2200    -1.1370     6.7450 o          1 7WE      -0.535000
     37 C20          6.0130    -3.5920     6.1720 c3         1 7WE       0.101300
@<TRIPOS>BOND
     1     1     2 1   
     2     1     5 ar  
     3     1    13 ar  
     4     2    15 1   
     5     2    19 1   
     6     2    20 1   
     7     3    15 1   
     8     3    21 1   
     9     3    22 1   
    10     3    23 1   
    11     4    15 1   
    12     4    24 1   
    13     4    25 1   
    14     4    26 1   
    15     5     6 ar  
    16     5    27 1   
    17     6    11 ar  
    18     6    28 1   
    19     7    10 1   
    20     7    16 2   
    21     7    29 1   
    22     8     9 1   
    23     8    17 1   
    24     8    36 2   
    25     9    10 2   
    26     9    18 1   
    27    10    14 1   
    28    11    12 ar  
    29    11    14 1   
    30    12    13 ar  
    31    12    33 1   
    32    13    34 1   
    33    14    35 1   
    34    16    17 1   
    35    17    37 1   
    36    30    37 1   
    37    31    37 1   
    38    32    37 1   
@<TRIPOS>SUBSTRUCTURE
     1 7WE         1 TEMP              0 ****  ****    0 ROOT
