@<TRIPOS>MOLECULE
7WE
   37    38     1     0     0
SMALL
abcg2


@<TRIPOS>ATOM
      1 C10          5.3210     0.4450    -1.7320 ca         1 7WE      -0.094300
      2 C11          5.0530     0.4220    -3.2160 c3         1 7WE       0.208100
      3 C13          3.4210     0.6040    -4.9670 c3         1 7WE       0.146100
      4 C14          2.9970    -0.8440    -3.1010 c3         1 7WE       0.146100
      5 C15          4.8970     1.5200    -0.9500 ca         1 7WE      -0.072500
      6 C16          5.1420     1.5530     0.4140 ca         1 7WE      -0.142000
      7 C17          5.5410    -1.6620     3.0890 cc         1 7WE       0.315500
      8 C02          6.6920    -1.2480     5.5730 c          1 7WE       0.563200
      9 C03          6.6940    -0.2110     4.5850 cd         1 7WE      -0.129200
     10 C05          6.1430    -0.3840     3.3320 cc         1 7WE       0.147400
     11 C07          5.8370     0.5080     1.0280 ca         1 7WE       0.286000
     12 C08          6.2830    -0.5620     0.2550 ca         1 7WE      -0.142000
     13 C09          6.0110    -0.5910    -1.1080 ca         1 7WE      -0.072500
     14 N06          6.1220     0.6090     2.4060 nu         1 7WE      -0.836000
     15 N12          3.6250     0.3960    -3.5400 n3         1 7WE      -0.713600
     16 N18          5.5170    -2.6200     3.9620 nd         1 7WE      -0.393300
     17 N19          6.0820    -2.4310     5.1530 n          1 7WE      -0.141800
     18 CL04         7.4240     1.2970     5.0240 cl         1 7WE      -0.159000
     19 H1           5.5770    -0.4380    -3.6640 h1         1 7WE       0.040200
     20 H2           5.4710     1.3240    -3.6710 h1         1 7WE       0.040200
     21 H3           3.8540     1.5600    -5.2670 h1         1 7WE       0.033367
     22 H4           3.8830    -0.1900    -5.5780 h1         1 7WE       0.033367
     23 H5           2.3530     0.6210    -5.1860 h1         1 7WE       0.033367
     24 H6           3.1140    -0.9640    -2.0240 h1         1 7WE       0.033367
     25 H7           1.9320    -0.8150    -3.3330 h1         1 7WE       0.033367
     26 H8           3.4340    -1.7290    -3.5940 h1         1 7WE       0.033367
     27 H9           4.3590     2.3380    -1.4130 ha         1 7WE       0.122500
     28 H10          4.8020     2.3890     1.0130 ha         1 7WE       0.123000
     29 H11          5.0500    -1.8680     2.1500 h4         1 7WE       0.055800
     30 H12          5.5100    -4.3640     5.5870 h1         1 7WE       0.058700
     31 H13          7.0360    -3.8600     6.3600 h1         1 7WE       0.058700
     32 H14          5.4920    -3.2610     6.9890 h1         1 7WE       0.058700
     33 H15          6.8590    -1.3580     0.7060 ha         1 7WE       0.123000
     34 H16          6.3590    -1.4300    -1.6980 ha         1 7WE       0.122500
     35 H17          6.3520     1.5330     2.7430 hn         1 7WE       0.513000
     36 O01          7.1750    -1.1690     6.7070 o          1 7WE      -0.535000
     37 C20          6.0280    -3.5520     6.0870 c3         1 7WE       0.101300
@<TRIPOS>BOND
     1     1     2 1   
     2     1     5 ar  
     3     1    13 ar  
     4     2    15 1   
     5     2    19 1   
     6     2    20 1   
     7     3    15 1   
     8     3    21 1   
     9     3    22 1   
    10     3    23 1   
    11     4    15 1   
    12     4    24 1   
    13     4    25 1   
    14     4    26 1   
    15     5     6 ar  
    16     5    27 1   
    17     6    11 ar  
    18     6    28 1   
    19     7    10 1   
    20     7    16 2   
    21     7    29 1   
    22     8     9 1   
    23     8    17 1   
    24     8    36 2   
    25     9    10 2   
    26     9    18 1   
    27    10    14 1   
    28    11    12 ar  
    29    11    14 1   
    30    12    13 ar  
    31    12    33 1   
    32    13    34 1   
    33    14    35 1   
    34    16    17 1   
    35    17    37 1   
    36    30    37 1   
    37    31    37 1   
    38    32    37 1   
@<TRIPOS>SUBSTRUCTURE
     1 7WE         1 TEMP              0 ****  ****    0 ROOT
