@<TRIPOS>MOLECULE
7WF
   42    42     1     0     0
SMALL
bcc


@<TRIPOS>ATOM
      1 O1           6.7960     0.2230     0.4140 o          1 7WF      -0.697700
      2 S1           5.7840     1.2280     0.0410 s6         1 7WF       1.218300
      3 O2           5.1890     1.9190     1.2030 o          1 7WF      -0.697700
      4 O3           6.2660     2.1610    -0.9990 o          1 7WF      -0.697700
      5 C1           4.4200     0.3390    -0.7420 c3         1 7WF      -0.284600
      6 C2           3.5620    -0.4710     0.2200 c3         1 7WF       0.190600
      7 O4           4.3030    -1.3950     0.9760 oh         1 7WF      -0.573300
      8 C3           2.4280    -1.1400    -0.5610 c3         1 7WF       0.135800
      9 N1           1.5340    -1.8990     0.2910 n3         1 7WF      -0.711100
     10 C7           0.6730    -1.0940     1.1420 c6         1 7WF       0.149050
     11 C6          -0.4950    -0.4490     0.4050 c6         1 7WF       0.149050
     12 N2          -1.2840    -1.4630    -0.2720 n3         1 7WF      -0.711100
     13 C5          -0.4540    -2.2410    -1.1750 c6         1 7WF       0.149050
     14 C4           0.7170    -2.8630    -0.4240 c6         1 7WF       0.149050
     15 H1           3.8020     1.0900    -1.2380 h1         1 7WF       0.066200
     16 H2           4.8510    -0.2950    -1.5230 h1         1 7WF       0.066200
     17 H3           3.1340     0.2240     0.9470 h1         1 7WF       0.087200
     18 H4           4.8350    -1.9270     0.3760 ho         1 7WF       0.393500
     19 H5           1.9220    -0.3690    -1.1640 h1         1 7WF       0.021200
     20 H6           2.8750    -1.8350    -1.2810 h1         1 7WF       0.021200
     21 H8           0.2700    -1.7410     1.9270 h1         1 7WF       0.041075
     22 H9           1.2560    -0.3230     1.6470 h1         1 7WF       0.041075
     23 H10         -1.1110     0.0710     1.1400 h1         1 7WF       0.041075
     24 H11         -0.1260     0.3200    -0.2970 h1         1 7WF       0.041075
     25 H14         -1.0590    -3.0390    -1.6130 h1         1 7WF       0.041075
     26 H15         -0.0850    -1.6300    -2.0180 h1         1 7WF       0.041075
     27 H16          1.3440    -3.4290    -1.1160 h1         1 7WF       0.041075
     28 H17          0.3160    -3.5790     0.3020 h1         1 7WF       0.041075
     29 C8          -2.4350    -0.9330    -0.9680 c3         1 7WF       0.135800
     30 C9          -3.4500    -0.2280    -0.0660 c3         1 7WF       0.190600
     31 C10         -4.6620     0.1520    -0.9070 c3         1 7WF      -0.284600
     32 S2          -5.9190     1.1050    -0.0330 s6         1 7WF       1.218300
     33 O5          -3.7790    -0.9900     1.0670 oh         1 7WF      -0.573300
     34 O7          -5.1950     2.2130     0.6240 o          1 7WF      -0.697700
     35 O8          -6.8400     1.5670    -1.0920 o          1 7WF      -0.697700
     36 O6          -6.5690     0.1890     0.9220 o          1 7WF      -0.697700
     37 H7          -2.1470    -0.2310    -1.7710 h1         1 7WF       0.021200
     38 H12         -2.9330    -1.7740    -1.4660 h1         1 7WF       0.021200
     39 H13         -3.0110     0.6960     0.3200 h1         1 7WF       0.087200
     40 H19         -4.3400     0.7630    -1.7540 h1         1 7WF       0.066200
     41 H20         -5.1520    -0.7360    -1.3160 h1         1 7WF       0.066200
     42 H21         -4.2520    -1.7780     0.7820 ho         1 7WF       0.393500
@<TRIPOS>BOND
     1     1     2 1   
     2     2     3 1   
     3     2     4 1   
     4     2     5 1   
     5     5     6 1   
     6     5    15 1   
     7     5    16 1   
     8     6     7 1   
     9     6     8 1   
    10     6    17 1   
    11     7    18 1   
    12     8     9 1   
    13     8    19 1   
    14     8    20 1   
    15     9    10 1   
    16     9    14 1   
    17    10    11 1   
    18    10    21 1   
    19    10    22 1   
    20    11    12 1   
    21    11    23 1   
    22    11    24 1   
    23    12    13 1   
    24    12    29 1   
    25    13    14 1   
    26    13    25 1   
    27    13    26 1   
    28    14    27 1   
    29    14    28 1   
    30    29    30 1   
    31    29    37 1   
    32    29    38 1   
    33    30    31 1   
    34    30    33 1   
    35    30    39 1   
    36    31    32 1   
    37    31    40 1   
    38    31    41 1   
    39    32    34 1   
    40    32    35 1   
    41    32    36 1   
    42    33    42 1   
@<TRIPOS>SUBSTRUCTURE
     1 7WF         1 TEMP              0 ****  ****    0 ROOT
