@<TRIPOS>MOLECULE
7WF
   42    42     1     0     0
SMALL
No Charge or Current Charge


@<TRIPOS>ATOM
      1 O1           3.7970     2.3180     0.6470 o          1 7WF      -0.697700
      2 S1           4.4540     1.7640    -0.5450 s6         1 7WF       1.329100
      3 O2           3.5860     1.6400    -1.7230 o          1 7WF      -0.697700
      4 O3           5.7810     2.3300    -0.8270 o          1 7WF      -0.697700
      5 C1           4.8190     0.0620    -0.0850 c3         1 7WF      -0.395400
      6 C2           3.5970    -0.6910     0.4650 c3         1 7WF       0.213800
      7 O4           4.0560    -1.9390     0.9790 oh         1 7WF      -0.635500
      8 C3           2.4870    -1.0290    -0.5760 c3         1 7WF       0.135800
      9 N1           1.6300    -2.1910    -0.1820 n3         1 7WF      -0.711100
     10 C7           0.7640    -1.9370     1.0170 c6         1 7WF       0.149050
     11 C6          -0.4210    -0.9610     0.7170 c6         1 7WF       0.149050
     12 N2          -1.2710    -1.4360    -0.4230 n3         1 7WF      -0.711100
     13 C5          -0.4160    -1.7000    -1.6210 c6         1 7WF       0.149050
     14 C4           0.7640    -2.6760    -1.3010 c6         1 7WF       0.149050
     15 H1           5.2220    -0.4320    -0.9750 h1         1 7WF       0.066200
     16 H2           5.5960     0.1220     0.6840 h1         1 7WF       0.066200
     17 H3           3.1390    -0.1080     1.2770 h1         1 7WF       0.087200
     18 H4           3.3090    -2.5400     0.7390 ho         1 7WF       0.432500
     19 H5           1.8720    -0.1370    -0.7480 h1         1 7WF       0.021200
     20 H6           2.9830    -1.2630    -1.5280 h1         1 7WF       0.021200
     21 H8           0.3390    -2.8890     1.3670 h1         1 7WF       0.041075
     22 H9           1.3550    -1.5380     1.8540 h1         1 7WF       0.041075
     23 H10         -1.0210    -0.8610     1.6330 h1         1 7WF       0.041075
     24 H11         -0.0140     0.0370     0.4970 h1         1 7WF       0.041075
     25 H14         -1.0210    -2.1400    -2.4270 h1         1 7WF       0.041075
     26 H15         -0.0040    -0.7580    -2.0100 h1         1 7WF       0.041075
     27 H16          1.3610    -2.8300    -2.2110 h1         1 7WF       0.041075
     28 H17          0.3370    -3.6550    -1.0380 h1         1 7WF       0.041075
     29 C8          -2.4130    -0.5260    -0.7340 c3         1 7WF       0.135800
     30 C9          -3.4930    -0.4750     0.3880 c3         1 7WF       0.213800
     31 C10         -4.8980    -0.0370    -0.0590 c3         1 7WF      -0.395400
     32 S2          -4.9910     1.7090    -0.4930 s6         1 7WF       1.329100
     33 O5          -3.5990    -1.8000     0.9010 oh         1 7WF      -0.635500
     34 O7          -4.1990     1.8160    -1.7260 o          1 7WF      -0.697700
     35 O8          -6.4310     1.9340    -0.6770 o          1 7WF      -0.697700
     36 O6          -4.4120     2.3930     0.6710 o          1 7WF      -0.697700
     37 H7          -2.0400     0.4890    -0.9260 h1         1 7WF       0.021200
     38 H12         -2.9020    -0.8700    -1.6550 h1         1 7WF       0.021200
     39 H13         -3.1320     0.1960     1.1820 h1         1 7WF       0.087200
     40 H19         -5.2300    -0.6040    -0.9340 h1         1 7WF       0.066200
     41 H20         -5.6100    -0.1770     0.7610 h1         1 7WF       0.066200
     42 H21         -2.7480    -2.2000     0.5960 ho         1 7WF       0.432500
@<TRIPOS>BOND
     1     1     2 1   
     2     2     3 1   
     3     2     4 1   
     4     2     5 1   
     5     5     6 1   
     6     5    15 1   
     7     5    16 1   
     8     6     7 1   
     9     6     8 1   
    10     6    17 1   
    11     7    18 1   
    12     8     9 1   
    13     8    19 1   
    14     8    20 1   
    15     9    10 1   
    16     9    14 1   
    17    10    11 1   
    18    10    21 1   
    19    10    22 1   
    20    11    12 1   
    21    11    23 1   
    22    11    24 1   
    23    12    13 1   
    24    12    29 1   
    25    13    14 1   
    26    13    25 1   
    27    13    26 1   
    28    14    27 1   
    29    14    28 1   
    30    29    30 1   
    31    29    37 1   
    32    29    38 1   
    33    30    31 1   
    34    30    33 1   
    35    30    39 1   
    36    31    32 1   
    37    31    40 1   
    38    31    41 1   
    39    32    34 1   
    40    32    35 1   
    41    32    36 1   
    42    33    42 1   
@<TRIPOS>SUBSTRUCTURE
     1 7WF         1 TEMP              0 ****  ****    0 ROOT
