@<TRIPOS>MOLECULE
7WG
   18    19     1     0     0
SMALL
No Charge or Current Charge


@<TRIPOS>ATOM
      1 C01         -0.1960     0.9240    -1.0010 cc         1 7WG       0.256900
      2 C02          0.3460    -0.1870    -0.3920 cd         1 7WG      -0.173300
      3 N03         -0.7350    -0.8170     0.2030 na         1 7WG      -0.322500
      4 C04         -1.8230    -0.0530    -0.0890 cd         1 7WG       0.608400
      5 N05         -1.5510     0.9970    -0.8050 nc         1 7WG      -0.722000
      6 N06         -3.0580    -0.3370     0.3200 nv         1 7WG      -1.012900
      7 C07          1.7730    -0.5920    -0.3850 cx         1 7WG      -0.059400
      8 C08          2.5770    -0.4970     0.8900 cx         1 7WG      -0.119900
      9 C09          2.8720     0.4370    -0.2590 cx         1 7WG      -0.119900
     10 H011         0.3140     1.6870    -1.5770 h4         1 7WG       0.035100
     11 H031        -0.7370    -1.6710     0.7410 hn         1 7WG       0.351000
     12 H061        -3.1660    -0.9720     1.1030 hn         1 7WG       0.449500
     13 H062        -3.7460     0.4020     0.2320 hn         1 7WG       0.449500
     14 H071         1.9750    -1.4520    -1.0210 hc         1 7WG       0.078700
     15 H081         2.0910    -0.0800     1.7690 hc         1 7WG       0.074700
     16 H082         3.2930    -1.2880     1.0970 hc         1 7WG       0.074700
     17 H091         3.7850     0.2730    -0.8250 hc         1 7WG       0.074700
     18 H092         2.5890     1.4810    -0.1440 hc         1 7WG       0.074700
@<TRIPOS>BOND
     1     1     2 2   
     2     1     5 1   
     3     1    10 1   
     4     2     3 1   
     5     2     7 1   
     6     3     4 1   
     7     3    11 1   
     8     4     5 2   
     9     4     6 1   
    10     6    12 1   
    11     6    13 1   
    12     7     8 1   
    13     7     9 1   
    14     7    14 1   
    15     8     9 1   
    16     8    15 1   
    17     8    16 1   
    18     9    17 1   
    19     9    18 1   
@<TRIPOS>SUBSTRUCTURE
     1 7WG         1 TEMP              0 ****  ****    0 ROOT
