@<TRIPOS>MOLECULE
7WG
   18    19     1     0     0
SMALL
abcg2


@<TRIPOS>ATOM
      1 C01         -0.1400     1.1530    -0.4960 cc         1 7WG       0.256900
      2 C02          0.3500    -0.0960    -0.2600 cd         1 7WG      -0.173300
      3 N03         -0.7690    -0.8590     0.0060 na         1 7WG      -0.322500
      4 C04         -1.8510    -0.0500    -0.0690 cd         1 7WG       0.608400
      5 N05         -1.5100     1.1780    -0.3640 nc         1 7WG      -0.722000
      6 N06         -3.1340    -0.5320     0.0770 nv         1 7WG      -1.012900
      7 C07          1.7090    -0.6550    -0.2090 cx         1 7WG      -0.059400
      8 C08          2.6780    -0.2350     0.8680 cx         1 7WG      -0.119900
      9 C09          2.8830     0.2140    -0.5420 cx         1 7WG      -0.119900
     10 H011         0.4160     2.0430    -0.7500 h4         1 7WG       0.035100
     11 H031        -0.7790    -1.8490     0.1940 hn         1 7WG       0.351000
     12 H061        -3.2730    -1.1070     0.8950 hn         1 7WG       0.449500
     13 H062        -3.8160     0.2120     0.0560 hn         1 7WG       0.449500
     14 H071         1.7840    -1.6920    -0.5190 hc         1 7WG       0.078700
     15 H081         2.3340     0.4950     1.5900 hc         1 7WG       0.074700
     16 H082         3.3420    -0.9890     1.2710 hc         1 7WG       0.074700
     17 H091         3.6870    -0.2280    -1.1140 hc         1 7WG       0.074700
     18 H092         2.6930     1.2540    -0.7760 hc         1 7WG       0.074700
@<TRIPOS>BOND
     1     1     2 2   
     2     1     5 1   
     3     1    10 1   
     4     2     3 1   
     5     2     7 1   
     6     3     4 1   
     7     3    11 1   
     8     4     5 2   
     9     4     6 1   
    10     6    12 1   
    11     6    13 1   
    12     7     8 1   
    13     7     9 1   
    14     7    14 1   
    15     8     9 1   
    16     8    15 1   
    17     8    16 1   
    18     9    17 1   
    19     9    18 1   
@<TRIPOS>SUBSTRUCTURE
     1 7WG         1 TEMP              0 ****  ****    0 ROOT
