@<TRIPOS>MOLECULE
7WH
   35    36     1     0     0
SMALL
bcc


@<TRIPOS>ATOM
      1 O4           2.6320     1.2650     0.9270 o          1 7WH      -0.535100
      2 C2           3.3640     0.6600     0.1710 c          1 7WH       0.668100
      3 C1           4.7910     1.0970    -0.1190 c3         1 7WH       0.046400
      4 O            5.0830     2.2210     0.6460 os         1 7WH      -0.362600
      5 C            6.3920     2.6860     0.4260 c3         1 7WH       0.119700
      6 N            3.0160    -0.4580    -0.5100 ns         1 7WH      -0.478100
      7 C3           1.8130    -1.1790    -0.4280 ca         1 7WH       0.018600
      8 C8           0.5900    -0.6030    -0.0990 ca         1 7WH      -0.088000
      9 C7          -0.5740    -1.3650    -0.0360 cp         1 7WH      -0.112500
     10 C6          -0.5220    -2.7300    -0.3330 ca         1 7WH       0.144100
     11 O3          -1.6650    -3.4420    -0.3060 oh         1 7WH      -0.461100
     12 C5           0.6970    -3.3030    -0.6800 ca         1 7WH      -0.221000
     13 C4           1.8500    -2.5400    -0.7180 ca         1 7WH      -0.149000
     14 C9          -1.8510    -0.7000     0.3190 cp         1 7WH       0.412800
     15 N1          -2.5610    -1.2290     1.3130 nb         1 7WH      -0.681000
     16 C13         -3.6960    -0.6310     1.6500 ca         1 7WH       0.356200
     17 C12         -4.1810     0.5090     1.0270 ca         1 7WH      -0.212300
     18 C11         -3.4470     1.0700    -0.0100 ca         1 7WH      -0.112600
     19 C10         -2.2590     0.4430    -0.3630 ca         1 7WH      -0.197300
     20 C14         -3.9300     2.3230    -0.7410 c          1 7WH       0.926200
     21 O2          -3.1890     2.7520    -1.6440 o          1 7WH      -0.818800
     22 O1          -5.0180     2.7920    -0.3640 o          1 7WH      -0.818800
     23 H11C         5.4740     0.2620     0.1000 h1         1 7WH       0.030700
     24 H12C         4.8860     1.2970    -1.1980 h1         1 7WH       0.030700
     25 H            3.7420    -0.9000    -1.0550 hn         1 7WH       0.303500
     26 HC1          6.5490     3.5530     1.0660 h1         1 7WH       0.027367
     27 HC2          7.1440     1.9280     0.6770 h1         1 7WH       0.027367
     28 HC3          6.5510     2.9880    -0.6150 h1         1 7WH       0.027367
     29 H8           0.5220     0.4510     0.1220 ha         1 7WH       0.175000
     30 H4           2.7880    -3.0140    -0.9810 ha         1 7WH       0.112000
     31 H5           0.7520    -4.3580    -0.9210 ha         1 7WH       0.119000
     32 H10         -1.6580     0.8350    -1.1730 ha         1 7WH       0.154000
     33 H13         -4.2530    -1.0830     2.4650 h4         1 7WH      -0.009900
     34 H12         -5.1160     0.9480     1.3460 ha         1 7WH       0.151000
     35 H3          -1.4930    -4.3510    -0.5750 ho         1 7WH       0.405000
@<TRIPOS>BOND
     1     1     2 2   
     2     2     3 1   
     3     2     6 1   
     4     3     4 1   
     5     3    23 1   
     6     3    24 1   
     7     4     5 1   
     8     5    26 1   
     9     5    27 1   
    10     5    28 1   
    11     6     7 1   
    12     6    25 1   
    13     7     8 ar  
    14     7    13 ar  
    15     8     9 ar  
    16     8    29 1   
    17     9    10 ar  
    18     9    14 1   
    19    10    11 1   
    20    10    12 ar  
    21    11    35 1   
    22    12    13 ar  
    23    12    31 1   
    24    13    30 1   
    25    14    15 ar  
    26    14    19 ar  
    27    15    16 ar  
    28    16    17 ar  
    29    16    33 1   
    30    17    18 ar  
    31    17    34 1   
    32    18    19 ar  
    33    18    20 1   
    34    19    32 1   
    35    20    21 1   
    36    20    22 1   
@<TRIPOS>SUBSTRUCTURE
     1 7WH         1 TEMP              0 ****  ****    0 ROOT
