@<TRIPOS>MOLECULE
7WH
   35    36     1     0     0
SMALL
No Charge or Current Charge


@<TRIPOS>ATOM
      1 O4           2.5130     1.6600     0.3350 o          1 7WH      -0.535100
      2 C2           3.3480     0.8070     0.0450 c          1 7WH       0.601100
      3 C1           4.8690     1.1040    -0.0210 c3         1 7WH       0.069600
      4 O            5.1910     2.4810     0.2920 os         1 7WH      -0.409000
      5 C            6.5920     2.7940     0.2400 c3         1 7WH       0.142900
      6 N            3.0360    -0.5150    -0.2580 ns         1 7WH      -0.152000
      7 C3           1.8030    -1.2260    -0.3140 ca         1 7WH      -0.074000
      8 C8           0.5520    -0.6570     0.0120 ca         1 7WH      -0.070000
      9 C7          -0.6470    -1.4140    -0.0530 cp         1 7WH      -0.112500
     10 C6          -0.5640    -2.7680    -0.4760 ca         1 7WH       0.144100
     11 O3          -1.6790    -3.5420    -0.6170 oh         1 7WH      -0.500100
     12 C5           0.6780    -3.3350    -0.7980 ca         1 7WH      -0.203000
     13 C4           1.8530    -2.5720    -0.7140 ca         1 7WH      -0.131000
     14 C9          -1.9450    -0.7570     0.3010 cp         1 7WH       0.347500
     15 N1          -2.7000    -1.3320     1.2670 nb         1 7WH      -0.681000
     16 C13         -3.8540    -0.7330     1.6310 ca         1 7WH       0.290900
     17 C12         -4.3050     0.4690     1.0620 ca         1 7WH      -0.129000
     18 C11         -3.5320     1.1040     0.0640 ca         1 7WH      -0.112600
     19 C10         -2.3270     0.4650    -0.3060 ca         1 7WH      -0.114000
     20 C14         -3.9730     2.4080    -0.5780 c          1 7WH       0.715600
     21 O2          -3.2610     2.9030    -1.4410 o          1 7WH      -0.713500
     22 O1          -5.0230     2.9140    -0.2100 o          1 7WH      -0.713500
     23 H11C         5.3700     0.4240     0.6790 h1         1 7WH       0.030700
     24 H12C         5.2110     0.8510    -1.0330 h1         1 7WH       0.030700
     25 H            3.8420    -1.0860    -0.4820 hn         1 7WH       0.137000
     26 HC1          6.7560     3.8500     0.4890 h1         1 7WH       0.027367
     27 HC2          7.1550     2.1820     0.9580 h1         1 7WH       0.027367
     28 HC3          6.9950     2.6120    -0.7640 h1         1 7WH       0.027367
     29 H8           0.4800     0.3760     0.3360 ha         1 7WH       0.157000
     30 H4           2.8060    -3.0300    -0.9690 ha         1 7WH       0.094000
     31 H5           0.7410    -4.3710    -1.1240 ha         1 7WH       0.101000
     32 H10         -1.6840     0.8990    -1.0660 ha         1 7WH       0.136000
     33 H13         -4.4340    -1.2320     2.4060 h4         1 7WH      -0.009900
     34 H12         -5.2440     0.8980     1.4020 ha         1 7WH       0.133000
     35 H3          -1.3980    -4.4340    -0.9080 ho         1 7WH       0.444000
@<TRIPOS>BOND
     1     1     2 2   
     2     2     3 1   
     3     2     6 1   
     4     3     4 1   
     5     3    23 1   
     6     3    24 1   
     7     4     5 1   
     8     5    26 1   
     9     5    27 1   
    10     5    28 1   
    11     6     7 1   
    12     6    25 1   
    13     7     8 ar  
    14     7    13 ar  
    15     8     9 ar  
    16     8    29 1   
    17     9    10 ar  
    18     9    14 1   
    19    10    11 1   
    20    10    12 ar  
    21    11    35 1   
    22    12    13 ar  
    23    12    31 1   
    24    13    30 1   
    25    14    15 ar  
    26    14    19 ar  
    27    15    16 ar  
    28    16    17 ar  
    29    16    33 1   
    30    17    18 ar  
    31    17    34 1   
    32    18    19 ar  
    33    18    20 1   
    34    19    32 1   
    35    20    21 1   
    36    20    22 1   
@<TRIPOS>SUBSTRUCTURE
     1 7WH         1 TEMP              0 ****  ****    0 ROOT
