@<TRIPOS>MOLECULE
7WI
   28    28     1     0     0
SMALL
No Charge or Current Charge


@<TRIPOS>ATOM
      1 C1          -1.1400    -0.6360    -0.2910 ca         1 7WI       0.013000
      2 C2          -1.6500    -0.4050     1.0060 ca         1 7WI      -0.136000
      3 N3           0.1250    -0.1640    -0.7360 ns         1 7WI      -0.164000
      4 C4          -1.9160    -1.3760    -1.2050 ca         1 7WI      -0.180000
      5 C5          -2.9100    -0.9070     1.3710 ca         1 7WI       0.151000
      6 C6           1.1070     0.5880    -0.1140 c          1 7WI       0.660100
      7 C7          -3.1770    -1.8770    -0.8390 ca         1 7WI      -0.071000
      8 C8          -3.6750    -1.6410     0.4520 ca         1 7WI      -0.138000
      9 Cl9         -3.5330    -0.6120     2.9890 cl         1 7WI      -0.205000
     10 N10          2.1900     0.8160    -0.9290 ns         1 7WI      -0.515900
     11 O11          1.0490     1.0220     1.0280 o          1 7WI      -0.622100
     12 C12          3.4100     1.5260    -0.5160 c3         1 7WI       0.115000
     13 C13          4.3120     0.6950     0.4270 c3         1 7WI       0.137600
     14 O14          4.7270    -0.4990    -0.2670 os         1 7WI      -0.467000
     15 C15          5.5680    -1.3740     0.5040 c3         1 7WI       0.145900
     16 H2          -1.0900     0.1560     1.7450 ha         1 7WI       0.166000
     17 H3           0.3440    -0.4310    -1.6860 hn         1 7WI       0.146000
     18 H4          -1.5400    -1.5650    -2.2080 ha         1 7WI       0.110000
     19 H7          -3.7670    -2.4470    -1.5540 ha         1 7WI       0.116000
     20 H8          -4.6490    -2.0260     0.7410 ha         1 7WI       0.131000
     21 H10          2.1660     0.4060    -1.8540 hn         1 7WI       0.319500
     22 H121         3.9810     1.7980    -1.4120 h1         1 7WI       0.061700
     23 H122         3.1240     2.4570    -0.0090 h1         1 7WI       0.061700
     24 H131         5.1840     1.2990     0.7130 h1         1 7WI       0.035200
     25 H132         3.7570     0.4420     1.3400 h1         1 7WI       0.035200
     26 H151         5.0490    -1.7170     1.4090 h1         1 7WI       0.031700
     27 H152         5.8430    -2.2570    -0.0870 h1         1 7WI       0.031700
     28 H153         6.4920    -0.8630     0.8050 h1         1 7WI       0.031700
@<TRIPOS>BOND
     1     1     2 ar  
     2     1     3 1   
     3     1     4 ar  
     4     2     5 ar  
     5     2    16 1   
     6     3     6 1   
     7     3    17 1   
     8     4     7 ar  
     9     4    18 1   
    10     5     8 ar  
    11     5     9 1   
    12     6    10 1   
    13     6    11 2   
    14     7     8 ar  
    15     7    19 1   
    16     8    20 1   
    17    10    12 1   
    18    10    21 1   
    19    12    13 1   
    20    12    22 1   
    21    12    23 1   
    22    13    14 1   
    23    13    24 1   
    24    13    25 1   
    25    14    15 1   
    26    15    26 1   
    27    15    27 1   
    28    15    28 1   
@<TRIPOS>SUBSTRUCTURE
     1 7WI         1 TEMP              0 ****  ****    0 ROOT
