@<TRIPOS>MOLECULE
7WI
   28    28     1     0     0
SMALL
abcg2


@<TRIPOS>ATOM
      1 C1          -1.2700    -0.8040    -0.0290 ca         1 7WI       0.013000
      2 C2          -2.1100     0.1460     0.5580 ca         1 7WI      -0.136000
      3 N3           0.1140    -0.7100    -0.0690 ns         1 7WI      -0.164000
      4 C4          -1.8420    -1.9360    -0.6230 ca         1 7WI      -0.180000
      5 C5          -3.4800    -0.0640     0.5300 ca         1 7WI       0.151000
      6 C6           0.9230     0.3020     0.3970 c          1 7WI       0.660100
      7 C7          -3.2120    -2.1120    -0.6310 ca         1 7WI      -0.071000
      8 C8          -4.0590    -1.1760    -0.0530 ca         1 7WI      -0.138000
      9 CL9         -4.5030     1.1310     1.2660 cl         1 7WI      -0.205000
     10 N10          2.2390     0.0850     0.1680 ns         1 7WI      -0.515900
     11 O11          0.5010     1.2920     0.9760 o          1 7WI      -0.622100
     12 C12          3.2350     1.0890     0.4670 c3         1 7WI       0.115000
     13 C13          4.6120     0.4690     0.5290 c3         1 7WI       0.137600
     14 O14          4.9100    -0.1040    -0.7200 os         1 7WI      -0.467000
     15 C15          6.1630    -0.7410    -0.7440 c3         1 7WI       0.145900
     16 H2          -1.7090     1.0280     1.0280 ha         1 7WI       0.166000
     17 H3           0.5730    -1.4930    -0.5090 hn         1 7WI       0.146000
     18 H4          -1.2040    -2.6810    -1.0830 ha         1 7WI       0.110000
     19 H7          -3.6300    -2.9950    -1.0960 ha         1 7WI       0.116000
     20 H8          -5.1320    -1.3130    -0.0580 ha         1 7WI       0.131000
     21 H10          2.5160    -0.6480    -0.4670 hn         1 7WI       0.319500
     22 H121         3.2250     1.8970    -0.2740 h1         1 7WI       0.061700
     23 H122         3.0210     1.5380     1.4360 h1         1 7WI       0.061700
     24 H131         5.3380     1.2500     0.7910 h1         1 7WI       0.035200
     25 H132         4.6470    -0.2880     1.3250 h1         1 7WI       0.035200
     26 H151         6.2260    -1.5540    -0.0110 h1         1 7WI       0.031700
     27 H152         6.3060    -1.1620    -1.7390 h1         1 7WI       0.031700
     28 H153         6.9820    -0.0410    -0.5430 h1         1 7WI       0.031700
@<TRIPOS>BOND
     1     1     2 ar  
     2     1     3 1   
     3     1     4 ar  
     4     2     5 ar  
     5     2    16 1   
     6     3     6 1   
     7     3    17 1   
     8     4     7 ar  
     9     4    18 1   
    10     5     8 ar  
    11     5     9 1   
    12     6    10 1   
    13     6    11 2   
    14     7     8 ar  
    15     7    19 1   
    16     8    20 1   
    17    10    12 1   
    18    10    21 1   
    19    12    13 1   
    20    12    22 1   
    21    12    23 1   
    22    13    14 1   
    23    13    24 1   
    24    13    25 1   
    25    14    15 1   
    26    15    26 1   
    27    15    27 1   
    28    15    28 1   
@<TRIPOS>SUBSTRUCTURE
     1 7WI         1 TEMP              0 ****  ****    0 ROOT
