@<TRIPOS>MOLECULE
7WJ
   46    48     1     0     0
SMALL
No Charge or Current Charge


@<TRIPOS>ATOM
      1 C            7.0060     0.1310    -0.5290 c          1 7WJ       0.693000
      2 CA           5.9900    -0.9940    -0.0640 c3         1 7WJ       0.015500
      3 CB           4.5470    -0.4290    -0.0080 c3         1 7WJ      -0.070400
      4 CE           0.9460    -1.6680     0.0570 c          1 7WJ       0.601700
      5 O            7.3590     0.9710     0.2890 o          1 7WJ      -0.732000
      6 N            6.3320    -1.7070     1.2210 n8         1 7WJ      -1.001200
      7 OE           0.9750    -2.8910     0.0290 o          1 7WJ      -0.608100
      8 CG           3.4540    -1.5100     0.1320 c3         1 7WJ       0.095000
      9 ND           2.1090    -0.9300     0.1080 ns         1 7WJ      -0.485900
     10 CQ          -0.3580    -0.8970     0.0370 ca         1 7WJ      -0.124600
     11 CR1         -0.4220     0.5140     0.0650 ca         1 7WJ      -0.075000
     12 CR2         -1.5860    -1.5880    -0.0110 ca         1 7WJ      -0.075000
     13 CS1         -1.6760     1.1820     0.0440 cp         1 7WJ       0.275500
     14 CS2         -2.8190    -0.8840    -0.0300 cp         1 7WJ       0.275500
     15 CT1         -1.7710     2.7040     0.0730 cp         1 7WJ       0.301500
     16 CT3         -4.1560    -1.6150    -0.0830 cp         1 7WJ       0.301500
     17 CU2         -3.0240     3.3790     0.0520 ca         1 7WJ      -0.127500
     18 CU4         -5.3940    -0.9130    -0.1020 ca         1 7WJ      -0.127500
     19 CV1         -0.6590     4.7680     0.1470 ca         1 7WJ       0.342400
     20 CV2         -3.0760     4.7820     0.0800 ca         1 7WJ      -0.085500
     21 CV3         -5.3100    -3.6560    -0.1570 ca         1 7WJ       0.342400
     22 CV4         -6.6090    -1.6170    -0.1510 ca         1 7WJ      -0.085500
     23 CW1         -1.8640     5.4860     0.1280 ca         1 7WJ      -0.167000
     24 CW2         -6.5600    -3.0180    -0.1780 ca         1 7WJ      -0.167000
     25 NT2         -2.8390     0.4760    -0.0020 nb         1 7WJ      -0.681000
     26 NU1         -0.6110     3.4160     0.1200 nb         1 7WJ      -0.666000
     27 NU3         -4.1410    -2.9770    -0.1100 nb         1 7WJ      -0.666000
     28 H2           6.0030    -1.7580    -0.8550 h1         1 7WJ       0.038700
     29 H3           4.4630     0.2870     0.8190 hc         1 7WJ       0.044200
     30 H4           4.3590     0.1330    -0.9320 hc         1 7WJ       0.044200
     31 H5           7.2650    -2.1290     1.1310 hn         1 7WJ       0.384000
     32 H6           6.4700    -0.9990     1.9530 hn         1 7WJ       0.384000
     33 H8           3.5450    -2.2290    -0.6940 h1         1 7WJ       0.055700
     34 H9           3.5840    -2.0540     1.0770 h1         1 7WJ       0.055700
     35 H10          2.0200     0.0770     0.1330 hn         1 7WJ       0.312500
     36 H11          0.4840     1.1100     0.1020 ha         1 7WJ       0.162500
     37 H12         -1.5910    -2.6750    -0.0340 ha         1 7WJ       0.162500
     38 H13         -3.9510     2.8130     0.0150 ha         1 7WJ       0.140000
     39 H14         -5.4090     0.1730    -0.0800 ha         1 7WJ       0.140000
     40 H15          0.2980     5.2880     0.1840 h4         1 7WJ       0.021600
     41 H16         -4.0280     5.3070     0.0640 ha         1 7WJ       0.113500
     42 H17         -5.2410    -4.7430    -0.1770 h4         1 7WJ       0.021600
     43 H18         -7.5600    -1.0890    -0.1660 ha         1 7WJ       0.113500
     44 H19         -1.8510     6.5730     0.1510 ha         1 7WJ       0.119000
     45 H20         -7.4720    -3.6070    -0.2160 ha         1 7WJ       0.119000
     46 OXT          7.4850     0.0500    -1.6520 o          1 7WJ      -0.732000
@<TRIPOS>BOND
     1     1     2 1   
     2     1     5 1   
     3     1    46 1   
     4     2     3 1   
     5     2     6 1   
     6     2    28 1   
     7     3     8 1   
     8     3    29 1   
     9     3    30 1   
    10     4     7 2   
    11     4     9 1   
    12     4    10 1   
    13     6    31 1   
    14     6    32 1   
    15     8     9 1   
    16     8    33 1   
    17     8    34 1   
    18     9    35 1   
    19    10    11 ar  
    20    10    12 ar  
    21    11    13 ar  
    22    11    36 1   
    23    12    14 ar  
    24    12    37 1   
    25    13    15 1   
    26    13    25 ar  
    27    14    16 1   
    28    14    25 ar  
    29    15    17 ar  
    30    15    26 ar  
    31    16    18 ar  
    32    16    27 ar  
    33    17    20 ar  
    34    17    38 1   
    35    18    22 ar  
    36    18    39 1   
    37    19    23 ar  
    38    19    26 ar  
    39    19    40 1   
    40    20    23 ar  
    41    20    41 1   
    42    21    24 ar  
    43    21    27 ar  
    44    21    42 1   
    45    22    24 ar  
    46    22    43 1   
    47    23    44 1   
    48    24    45 1   
@<TRIPOS>SUBSTRUCTURE
     1 7WJ         1 TEMP              0 ****  ****    0 ROOT
