@<TRIPOS>MOLECULE
7WJ
   46    48     1     0     0
SMALL
abcg2


@<TRIPOS>ATOM
      1 C            6.8220     0.1830    -0.4090 c          1 7WJ       0.693000
      2 CA           5.8410    -0.9830    -0.1200 c3         1 7WJ       0.015500
      3 CB           4.4090    -0.4480    -0.1180 c3         1 7WJ      -0.070400
      4 CE           0.9460    -1.5900     0.4000 c          1 7WJ       0.601700
      5 O            7.6310     0.4950     0.4850 o          1 7WJ      -0.732000
      6 N            6.0920    -1.7340     1.1000 n8         1 7WJ      -1.001200
      7 OE           0.9620    -2.6820     0.9500 o          1 7WJ      -0.608100
      8 CG           3.3670    -1.5510    -0.0290 c3         1 7WJ       0.095000
      9 ND           2.0330    -0.9870    -0.0960 ns         1 7WJ      -0.485900
     10 CQ          -0.3410    -0.8320     0.2480 ca         1 7WJ      -0.124600
     11 CR1         -0.3910     0.5540     0.2270 ca         1 7WJ      -0.075000
     12 CR2         -1.5280    -1.5460     0.1710 ca         1 7WJ      -0.075000
     13 CS1         -1.6340     1.1750     0.1220 cp         1 7WJ       0.275500
     14 CS2         -2.7220    -0.8420     0.0490 cp         1 7WJ       0.275500
     15 CT1         -1.7460     2.6540     0.1150 cp         1 7WJ       0.301500
     16 CT3         -4.0200    -1.5520    -0.0640 cp         1 7WJ       0.301500
     17 CU2         -2.9870     3.2810     0.0340 ca         1 7WJ      -0.127500
     18 CU4         -5.2180    -0.8480    -0.1670 ca         1 7WJ      -0.127500
     19 CV1         -0.6570     4.6610     0.1860 ca         1 7WJ       0.342400
     20 CV2         -3.0310     4.6660     0.0330 ca         1 7WJ      -0.085500
     21 CV3         -5.1120    -3.5560    -0.1620 ca         1 7WJ       0.342400
     22 CV4         -6.4010    -1.5610    -0.2710 ca         1 7WJ      -0.085500
     23 CW1         -1.8440     5.3770     0.1100 ca         1 7WJ      -0.167000
     24 CW2         -6.3540    -2.9460    -0.2700 ca         1 7WJ      -0.167000
     25 NT2         -2.7600     0.4840     0.0300 nb         1 7WJ      -0.681000
     26 NU1         -0.6070     3.3380     0.1890 nb         1 7WJ      -0.666000
     27 NU3         -3.9770    -2.8810    -0.0610 nb         1 7WJ      -0.666000
     28 H2           5.9250    -1.6870    -0.9580 h1         1 7WJ       0.038700
     29 H3           4.2760     0.2450     0.7210 hc         1 7WJ       0.044200
     30 H4           4.2540     0.1310    -1.0310 hc         1 7WJ       0.044200
     31 H5           7.0130    -2.1490     1.0410 hn         1 7WJ       0.384000
     32 H6           6.1640    -1.0740     1.8670 hn         1 7WJ       0.384000
     33 H8           3.5160    -2.2700    -0.8420 h1         1 7WJ       0.055700
     34 H9           3.4710    -2.0990     0.9060 h1         1 7WJ       0.055700
     35 H10          1.9120    -0.1670    -0.6690 hn         1 7WJ       0.312500
     36 H11          0.4970     1.1640     0.3150 ha         1 7WJ       0.162500
     37 H12         -1.5320    -2.6260     0.1960 ha         1 7WJ       0.162500
     38 H13         -3.8910     2.6930    -0.0250 ha         1 7WJ       0.140000
     39 H14         -5.2190     0.2330    -0.1650 ha         1 7WJ       0.140000
     40 H15          0.2920     5.1810     0.2480 h4         1 7WJ       0.021600
     41 H16         -3.9810     5.1810    -0.0290 ha         1 7WJ       0.113500
     42 H17         -5.0320    -4.6380    -0.1570 h4         1 7WJ       0.021600
     43 H18         -7.3450    -1.0400    -0.3540 ha         1 7WJ       0.113500
     44 H19         -1.8310     6.4580     0.1120 ha         1 7WJ       0.119000
     45 H20         -7.2510    -3.5440    -0.3510 ha         1 7WJ       0.119000
     46 OXT          6.7050     0.7240    -1.5290 o          1 7WJ      -0.732000
@<TRIPOS>BOND
     1     1     2 1   
     2     1     5 1   
     3     1    46 1   
     4     2     3 1   
     5     2     6 1   
     6     2    28 1   
     7     3     8 1   
     8     3    29 1   
     9     3    30 1   
    10     4     7 2   
    11     4     9 1   
    12     4    10 1   
    13     6    31 1   
    14     6    32 1   
    15     8     9 1   
    16     8    33 1   
    17     8    34 1   
    18     9    35 1   
    19    10    11 ar  
    20    10    12 ar  
    21    11    13 ar  
    22    11    36 1   
    23    12    14 ar  
    24    12    37 1   
    25    13    15 1   
    26    13    25 ar  
    27    14    16 1   
    28    14    25 ar  
    29    15    17 ar  
    30    15    26 ar  
    31    16    18 ar  
    32    16    27 ar  
    33    17    20 ar  
    34    17    38 1   
    35    18    22 ar  
    36    18    39 1   
    37    19    23 ar  
    38    19    26 ar  
    39    19    40 1   
    40    20    23 ar  
    41    20    41 1   
    42    21    24 ar  
    43    21    27 ar  
    44    21    42 1   
    45    22    24 ar  
    46    22    43 1   
    47    23    44 1   
    48    24    45 1   
@<TRIPOS>SUBSTRUCTURE
     1 7WJ         1 TEMP              0 ****  ****    0 ROOT
