@<TRIPOS>MOLECULE
7WK
   43    44     1     0     0
SMALL
abcg2


@<TRIPOS>ATOM
      1 C1          32.6260    -1.6710   -29.6410 cc         1 7WK       0.229900
      2 C10         30.4910     0.9380   -31.2280 ca         1 7WK       0.068100
      3 C12         28.6570     2.9360   -33.4380 c3         1 7WK       0.127300
      4 C13         28.4460     4.3750   -33.9500 c3         1 7WK       0.194000
      5 C14         29.4420     4.7070   -35.0530 c3         1 7WK      -0.103600
      6 C15         28.5430     5.4090   -32.8270 c3         1 7WK      -0.103600
      7 C2          33.2140    -2.2080   -30.7330 cd         1 7WK      -0.420200
      8 C3          33.0650    -1.6200   -32.0390 c          1 7WK       0.580200
      9 O1          33.6300    -2.0780   -33.0250 o          1 7WK      -0.557000
     10 N           32.2930    -0.4720   -32.1330 n          1 7WK      -0.287000
     11 C5          31.5210    -0.0190   -31.0720 ca         1 7WK       0.106600
     12 O2          30.1200     1.3100   -32.4740 os         1 7WK      -0.371100
     13 C11         30.0110     2.6970   -32.7890 c3         1 7WK       0.134600
     14 O4          27.1630     4.4360   -34.5490 oh         1 7WK      -0.659000
     15 O3          27.6130     2.6600   -32.5250 oh         1 7WK      -0.676000
     16 C9          29.8090     1.4160   -30.1220 ca         1 7WK      -0.114000
     17 C8          30.0830     0.9420   -28.8460 ca         1 7WK      -0.133000
     18 C7          31.0120    -0.0590   -28.6810 ca         1 7WK      -0.051000
     19 C6          31.7160    -0.5560   -29.7830 ca         1 7WK      -0.124800
     20 O           32.7770    -2.1120   -28.3970 os         1 7WK      -0.334100
     21 C           33.6140    -3.2330   -28.1690 c3         1 7WK       0.145900
     22 H1          28.5830     2.2750   -34.3130 h1         1 7WK       0.056700
     23 H2          30.4530     4.8120   -34.6640 hc         1 7WK       0.045367
     24 H3          29.4560     3.9410   -35.8310 hc         1 7WK       0.045367
     25 H4          29.1740     5.6570   -35.5190 hc         1 7WK       0.045367
     26 H5          27.8220     5.2140   -32.0310 hc         1 7WK       0.045367
     27 H6          29.5360     5.4340   -32.3770 hc         1 7WK       0.045367
     28 H7          28.3400     6.4040   -33.2260 hc         1 7WK       0.045367
     29 H8          33.8600    -3.0730   -30.6810 ha         1 7WK       0.212000
     30 H9          32.5000     1.3720   -33.1200 h1         1 7WK       0.051700
     31 H10         33.4220     0.0420   -33.7930 h1         1 7WK       0.051700
     32 H11         31.6890     0.1260   -34.0910 h1         1 7WK       0.051700
     33 H12         30.8230     2.9520   -33.4770 h1         1 7WK       0.053200
     34 H13         30.1290     3.3090   -31.8910 h1         1 7WK       0.053200
     35 H14         26.5240     4.1270   -33.8970 ho         1 7WK       0.457000
     36 H15         27.4560     1.7120   -32.5050 ho         1 7WK       0.461000
     37 H16         29.0180     2.1400   -30.2700 ha         1 7WK       0.132000
     38 H17         29.5350     1.3280   -27.9970 ha         1 7WK       0.122000
     39 H18         31.1890    -0.4740   -27.6990 ha         1 7WK       0.133000
     40 H19         33.5970    -3.4160   -27.0980 h1         1 7WK       0.049367
     41 H20         33.2450    -4.1190   -28.6900 h1         1 7WK       0.049367
     42 H21         34.6420    -3.0360   -28.4830 h1         1 7WK       0.049367
     43 C4          32.4680     0.3120   -33.3550 c3         1 7WK       0.092300
@<TRIPOS>BOND
     1     1     7 2   
     2     1    19 1   
     3     1    20 1   
     4     2    11 ar  
     5     2    12 1   
     6     2    16 ar  
     7     3     4 1   
     8     3    13 1   
     9     3    15 1   
    10     3    22 1   
    11     4     5 1   
    12     4     6 1   
    13     4    14 1   
    14     5    23 1   
    15     5    24 1   
    16     5    25 1   
    17     6    26 1   
    18     6    27 1   
    19     6    28 1   
    20     7     8 1   
    21     7    29 1   
    22     8     9 2   
    23     8    10 1   
    24    10    11 1   
    25    10    43 1   
    26    11    19 ar  
    27    12    13 1   
    28    13    33 1   
    29    13    34 1   
    30    14    35 1   
    31    15    36 1   
    32    16    17 ar  
    33    16    37 1   
    34    17    18 ar  
    35    17    38 1   
    36    18    19 ar  
    37    18    39 1   
    38    20    21 1   
    39    21    40 1   
    40    21    41 1   
    41    21    42 1   
    42    30    43 1   
    43    31    43 1   
    44    32    43 1   
@<TRIPOS>SUBSTRUCTURE
     1 7WK         1 TEMP              0 ****  ****    0 ROOT
