@<TRIPOS>MOLECULE
7WK
   43    44     1     0     0
SMALL
No Charge or Current Charge


@<TRIPOS>ATOM
      1 C1          32.6230    -1.7500   -29.5820 cc         1 7WK       0.229900
      2 C10         31.0250     1.3470   -31.0410 ca         1 7WK       0.068100
      3 C12         29.2770     3.1520   -33.8360 c3         1 7WK       0.127300
      4 C13         28.4820     4.4650   -34.1670 c3         1 7WK       0.194000
      5 C14         29.3910     5.7160   -34.1230 c3         1 7WK      -0.103600
      6 C15         27.2350     4.6680   -33.2690 c3         1 7WK      -0.103600
      7 C2          32.6190    -2.5960   -30.6630 cd         1 7WK      -0.420200
      8 C3          32.2270    -2.1550   -32.0020 c          1 7WK       0.580200
      9 O1          32.2510    -2.9320   -32.9460 o          1 7WK      -0.557000
     10 N           31.8680    -0.7930   -32.1310 n          1 7WK      -0.287000
     11 C5          31.7370     0.1020   -30.9870 ca         1 7WK       0.106600
     12 O2          30.4510     1.7760   -32.2280 os         1 7WK      -0.371100
     13 C11         29.7810     3.0470   -32.3710 c3         1 7WK       0.134600
     14 O4          28.0150     4.3200   -35.5080 oh         1 7WK      -0.659000
     15 O3          28.4720     1.9940   -34.1530 oh         1 7WK      -0.676000
     16 C9          30.8930     2.1330   -29.8730 ca         1 7WK      -0.114000
     17 C8          31.3850     1.6750   -28.6470 ca         1 7WK      -0.133000
     18 C7          31.9670     0.4080   -28.5610 ca         1 7WK      -0.051000
     19 C6          32.1130    -0.3920   -29.7130 ca         1 7WK      -0.124800
     20 O           33.0280    -2.2210   -28.3520 os         1 7WK      -0.334100
     21 C           33.4830    -3.5710   -28.1360 c3         1 7WK       0.145900
     22 H1          30.1730     3.1450   -34.4730 h1         1 7WK       0.056700
     23 H2          29.7450     5.9110   -33.1030 hc         1 7WK       0.045367
     24 H3          30.2670     5.5880   -34.7700 hc         1 7WK       0.045367
     25 H4          28.8460     6.6050   -34.4630 hc         1 7WK       0.045367
     26 H5          26.5830     3.7870   -33.2860 hc         1 7WK       0.045367
     27 H6          27.5240     4.8590   -32.2280 hc         1 7WK       0.045367
     28 H7          26.6470     5.5280   -33.6110 hc         1 7WK       0.045367
     29 H8          32.9270    -3.6300   -30.6260 ha         1 7WK       0.212000
     30 H9          32.2690     0.7640   -33.5270 h1         1 7WK       0.051700
     31 H10         32.4430    -0.8580   -34.1970 h1         1 7WK       0.051700
     32 H11         30.8090    -0.2160   -33.8820 h1         1 7WK       0.051700
     33 H12         30.4720     3.8720   -32.1580 h1         1 7WK       0.053200
     34 H13         28.9310     3.1120   -31.6810 h1         1 7WK       0.053200
     35 H14         27.8690     3.3480   -35.5930 ho         1 7WK       0.457000
     36 H15         28.8670     1.2510   -33.6410 ho         1 7WK       0.461000
     37 H16         30.3940     3.0980   -29.8890 ha         1 7WK       0.132000
     38 H17         31.2720     2.2830   -27.7510 ha         1 7WK       0.122000
     39 H18         32.2860     0.0420   -27.5880 ha         1 7WK       0.133000
     40 H19         33.7580    -3.7140   -27.0840 h1         1 7WK       0.049367
     41 H20         32.6950    -4.2940   -28.3800 h1         1 7WK       0.049367
     42 H21         34.3670    -3.7890   -28.7490 h1         1 7WK       0.049367
     43 C4          31.8410    -0.2460   -33.5130 c3         1 7WK       0.092300
@<TRIPOS>BOND
     1     1     7 2   
     2     1    19 1   
     3     1    20 1   
     4     2    11 ar  
     5     2    12 1   
     6     2    16 ar  
     7     3     4 1   
     8     3    13 1   
     9     3    15 1   
    10     3    22 1   
    11     4     5 1   
    12     4     6 1   
    13     4    14 1   
    14     5    23 1   
    15     5    24 1   
    16     5    25 1   
    17     6    26 1   
    18     6    27 1   
    19     6    28 1   
    20     7     8 1   
    21     7    29 1   
    22     8     9 2   
    23     8    10 1   
    24    10    11 1   
    25    10    43 1   
    26    11    19 ar  
    27    12    13 1   
    28    13    33 1   
    29    13    34 1   
    30    14    35 1   
    31    15    36 1   
    32    16    17 ar  
    33    16    37 1   
    34    17    18 ar  
    35    17    38 1   
    36    18    19 ar  
    37    18    39 1   
    38    20    21 1   
    39    21    40 1   
    40    21    41 1   
    41    21    42 1   
    42    30    43 1   
    43    31    43 1   
    44    32    43 1   
@<TRIPOS>SUBSTRUCTURE
     1 7WK         1 TEMP              0 ****  ****    0 ROOT
