@<TRIPOS>MOLECULE
7WL
   50    52     1     0     0
SMALL
bcc


@<TRIPOS>ATOM
      1 C17          3.6630     3.7880    -0.3290 ca         1 7WL      -0.151000
      2 C18          4.4900     3.9330     0.7750 ca         1 7WL      -0.071000
      3 C19          5.3310     2.8960     1.1640 ca         1 7WL      -0.151000
      4 C20          5.3510     1.7120     0.4470 ca         1 7WL      -0.020000
      5 N1           3.7200    -1.0150    -0.6070 ns         1 7WL      -0.651300
      6 F3          -6.9910     0.7410    -2.1650 f          1 7WL      -0.235967
      7 F1          -6.7340    -1.3410    -1.6830 f          1 7WL      -0.235967
      8 F2          -5.3680    -0.3780    -3.0290 f          1 7WL      -0.235967
      9 C1          -5.1950     0.1720    -0.7510 ca         1 7WL      -0.243300
     10 C2          -4.1890    -0.7120    -0.3670 ca         1 7WL      -0.026000
     11 C6          -5.3520     1.3620    -0.0580 ca         1 7WL      -0.025000
     12 C5          -4.5160     1.6720     1.0040 ca         1 7WL      -0.234000
     13 C4          -3.5090     0.7890     1.3840 ca         1 7WL       0.196100
     14 O1          -2.6550     1.0070     2.3860 os         1 7WL      -0.314900
     15 C7          -2.7560     2.2050     3.1500 c3         1 7WL       0.141400
     16 C21         -1.6630     2.1820     4.1910 c3         1 7WL      -0.096100
     17 C3          -3.3490    -0.4260     0.6920 ca         1 7WL      -0.129300
     18 C9          -2.2640    -1.3820     1.0810 c3         1 7WL       0.026000
     19 C10          0.4450    -1.9380     0.8760 cc         1 7WL       0.060900
     20 C11          0.1510    -3.0520     1.7110 cc         1 7WL      -0.174000
     21 C12          1.2460    -3.8180     1.9700 cd         1 7WL      -0.082100
     22 S2           2.6510    -3.2240     1.2230 ss         1 7WL      -0.046800
     23 C13          1.7830    -1.9020     0.5270 cd         1 7WL      -0.172700
     24 C14          2.3780    -0.8860    -0.3220 c          1 7WL       0.741700
     25 O2           1.7280     0.0430    -0.7610 o          1 7WL      -0.549100
     26 O4           5.9140    -0.4450    -1.5630 o          1 7WL      -0.598800
     27 O3           3.8570     0.2510    -2.8210 o          1 7WL      -0.598800
     28 C15          4.5110     1.5820    -0.6530 ca         1 7WL      -0.291500
     29 C16          3.6650     2.6050    -1.0540 ca         1 7WL      -0.020000
     30 H1           3.0110     4.5970    -0.6310 ha         1 7WL       0.137500
     31 H2           4.4840     4.8580     1.3360 ha         1 7WL       0.133000
     32 H3           5.9770     3.0110     2.0240 ha         1 7WL       0.137500
     33 H4           6.0110     0.9090     0.7470 ha         1 7WL       0.157000
     34 H5           4.2900    -1.7600    -0.2230 hn         1 7WL       0.344500
     35 H6          -4.0510    -1.6490    -0.8920 ha         1 7WL       0.150000
     36 H7          -6.1220     2.0710    -0.3280 ha         1 7WL       0.149000
     37 H8          -4.6650     2.6090     1.5220 ha         1 7WL       0.144000
     38 H9          -2.6460     3.0750     2.4960 h1         1 7WL       0.038700
     39 H10         -3.7410     2.2650     3.6230 h1         1 7WL       0.038700
     40 H11         -1.7670     1.3270     4.8590 hc         1 7WL       0.051367
     41 H12         -0.6770     2.1470     3.7300 hc         1 7WL       0.051367
     42 H13         -1.7210     3.0890     4.7930 hc         1 7WL       0.051367
     43 H14         -2.1560    -1.4460     2.1630 h1         1 7WL       0.074700
     44 H15         -2.4790    -2.3760     0.6900 h1         1 7WL       0.074700
     45 H16         -0.8250    -3.2850     2.1090 ha         1 7WL       0.158000
     46 H17          1.2890    -4.7120     2.5740 h4         1 7WL       0.173000
     47 H18          3.0200     2.4920    -1.9130 ha         1 7WL       0.157000
     48 S3           4.5590     0.0750    -1.5690 sy         1 7WL       1.325900
     49 S1          -0.7170    -0.7560     0.3370 ss         1 7WL      -0.086000
     50 C8          -6.0720    -0.1920    -1.9000 c3         1 7WL       0.727200
@<TRIPOS>BOND
     1     1     2 ar  
     2     1    29 ar  
     3     1    30 1   
     4     2     3 ar  
     5     2    31 1   
     6     3     4 ar  
     7     3    32 1   
     8     4    28 ar  
     9     4    33 1   
    10     5    24 1   
    11     5    34 1   
    12     5    48 1   
    13     6    50 1   
    14     7    50 1   
    15     8    50 1   
    16     9    10 ar  
    17     9    11 ar  
    18     9    50 1   
    19    10    17 ar  
    20    10    35 1   
    21    11    12 ar  
    22    11    36 1   
    23    12    13 ar  
    24    12    37 1   
    25    13    14 1   
    26    13    17 ar  
    27    14    15 1   
    28    15    16 1   
    29    15    38 1   
    30    15    39 1   
    31    16    40 1   
    32    16    41 1   
    33    16    42 1   
    34    17    18 1   
    35    18    43 1   
    36    18    44 1   
    37    18    49 1   
    38    19    20 1   
    39    19    23 2   
    40    19    49 1   
    41    20    21 2   
    42    20    45 1   
    43    21    22 1   
    44    21    46 1   
    45    22    23 1   
    46    23    24 1   
    47    24    25 2   
    48    26    48 2   
    49    27    48 2   
    50    28    29 ar  
    51    28    48 1   
    52    29    47 1   
@<TRIPOS>SUBSTRUCTURE
     1 7WL         1 TEMP              0 ****  ****    0 ROOT
