@<TRIPOS>MOLECULE
7WL
   50    52     1     0     0
SMALL
No Charge or Current Charge


@<TRIPOS>ATOM
      1 C17          2.5630     3.8420     0.0510 ca         1 7WL      -0.133000
      2 C18          2.8940     4.1700     1.3760 ca         1 7WL      -0.053000
      3 C19          3.7490     3.3320     2.1120 ca         1 7WL      -0.133000
      4 C20          4.2800     2.1710     1.5240 ca         1 7WL      -0.002000
      5 N1           3.6200    -0.8800    -0.1050 ns         1 7WL      -0.584300
      6 F3          -7.2270     1.1820    -1.5800 f          1 7WL      -0.114667
      7 F1          -7.6660    -0.3130    -0.0650 f          1 7WL      -0.114667
      8 F2          -6.6810    -0.8890    -1.9160 f          1 7WL      -0.114667
      9 C1          -5.3830     0.3240    -0.3060 ca         1 7WL      -0.243300
     10 C2          -4.4800    -0.7440    -0.1160 ca         1 7WL      -0.008000
     11 C6          -5.0270     1.6110     0.1460 ca         1 7WL      -0.007000
     12 C5          -3.7840     1.8300     0.7620 ca         1 7WL      -0.216000
     13 C4          -2.8810     0.7630     0.9410 ca         1 7WL       0.196100
     14 O1          -1.6480     0.9380     1.5380 os         1 7WL      -0.338100
     15 C7          -1.1500     2.2260     1.9310 c3         1 7WL       0.164600
     16 C21          0.2640     2.0140     2.4940 c3         1 7WL      -0.096100
     17 C3          -3.2340    -0.5300     0.5030 ca         1 7WL      -0.129300
     18 C9          -2.2660    -1.6930     0.6890 c3         1 7WL       0.073900
     19 C10          0.3620    -2.5980     0.2450 cc         1 7WL      -0.066000
     20 C11          0.0810    -3.7490     1.0220 cc         1 7WL      -0.156000
     21 C12          1.1930    -4.3050     1.5940 cd         1 7WL      -0.209000
     22 S2           2.6510    -3.3890     1.1800 ss         1 7WL       0.243000
     23 C13          1.6920    -2.2110     0.2500 cd         1 7WL      -0.317600
     24 C14          2.2960    -0.9950    -0.3730 c          1 7WL       0.674700
     25 O2           1.6980    -0.1750    -1.0490 o          1 7WL      -0.549100
     26 O4           5.9230     0.0450     0.0800 o          1 7WL      -0.528000
     27 O3           4.5310     0.4700    -2.0250 o          1 7WL      -0.528000
     28 C15          3.9560     1.8440     0.1900 ca         1 7WL      -0.291500
     29 C16          3.0910     2.6830    -0.5450 ca         1 7WL      -0.002000
     30 H1           1.8960     4.4870    -0.5170 ha         1 7WL       0.119500
     31 H2           2.4850     5.0680     1.8340 ha         1 7WL       0.115000
     32 H3           4.0020     3.5830     3.1390 ha         1 7WL       0.119500
     33 H4           4.9420     1.5320     2.1080 ha         1 7WL       0.139000
     34 H5           4.0810    -1.5510     0.4790 hn         1 7WL       0.344500
     35 H6          -4.7460    -1.7460    -0.4490 ha         1 7WL       0.132000
     36 H7          -5.7130     2.4490     0.0250 ha         1 7WL       0.131000
     37 H8          -3.5420     2.8350     1.0960 ha         1 7WL       0.126000
     38 H9          -1.1020     2.9060     1.0710 h1         1 7WL       0.038700
     39 H10         -1.7900     2.6720     2.7030 h1         1 7WL       0.038700
     40 H11          0.2430     1.3190     3.3420 hc         1 7WL       0.051367
     41 H12          0.9300     1.6080     1.7230 hc         1 7WL       0.051367
     42 H13          0.6790     2.9670     2.8430 hc         1 7WL       0.051367
     43 H14         -1.8690    -1.6760     1.7120 h1         1 7WL       0.074700
     44 H15         -2.7720    -2.6530     0.5330 h1         1 7WL       0.074700
     45 H16         -0.9220    -4.1430     1.1500 ha         1 7WL       0.140000
     46 H17          1.2590    -5.1810     2.2270 h4         1 7WL       0.155000
     47 H18          2.8220     2.4420    -1.5720 ha         1 7WL       0.139000
     48 S3           4.6440     0.3570    -0.5660 sy         1 7WL       1.184300
     49 S1          -0.8560    -1.5550    -0.4920 ss         1 7WL      -0.007000
     50 C8          -6.7410     0.0770    -0.9700 c3         1 7WL       0.363300
@<TRIPOS>BOND
     1     1     2 ar  
     2     1    29 ar  
     3     1    30 1   
     4     2     3 ar  
     5     2    31 1   
     6     3     4 ar  
     7     3    32 1   
     8     4    28 ar  
     9     4    33 1   
    10     5    24 1   
    11     5    34 1   
    12     5    48 1   
    13     6    50 1   
    14     7    50 1   
    15     8    50 1   
    16     9    10 ar  
    17     9    11 ar  
    18     9    50 1   
    19    10    17 ar  
    20    10    35 1   
    21    11    12 ar  
    22    11    36 1   
    23    12    13 ar  
    24    12    37 1   
    25    13    14 1   
    26    13    17 ar  
    27    14    15 1   
    28    15    16 1   
    29    15    38 1   
    30    15    39 1   
    31    16    40 1   
    32    16    41 1   
    33    16    42 1   
    34    17    18 1   
    35    18    43 1   
    36    18    44 1   
    37    18    49 1   
    38    19    20 1   
    39    19    23 2   
    40    19    49 1   
    41    20    21 2   
    42    20    45 1   
    43    21    22 1   
    44    21    46 1   
    45    22    23 1   
    46    23    24 1   
    47    24    25 2   
    48    26    48 2   
    49    27    48 2   
    50    28    29 ar  
    51    28    48 1   
    52    29    47 1   
@<TRIPOS>SUBSTRUCTURE
     1 7WL         1 TEMP              0 ****  ****    0 ROOT
