@<TRIPOS>MOLECULE
7WN
   35    37     1     0     0
SMALL
bcc


@<TRIPOS>ATOM
      1 N11          4.2830     2.3600    -3.2750 n7         1 7WN      -0.787200
      2 C12          3.9910     1.0440    -3.8170 c6         1 7WN       0.150800
      3 C13          5.0320     0.0010    -3.4250 c6         1 7WN      -0.071100
      4 C14          5.3610     0.0650    -1.9560 ca         1 7WN      -0.082300
      5 C15          6.0330    -0.9850    -1.3320 ca         1 7WN      -0.106000
      6 C16          6.3600    -0.9420     0.0110 ca         1 7WN      -0.149000
      7 C17          5.3860    -1.8840     2.8320 cc         1 7WN       0.315500
      8 C02          6.5020    -1.6140     5.3370 c          1 7WN       0.706700
      9 C03          6.6810    -0.5970     4.3430 cd         1 7WN      -0.215800
     10 C05          6.1570    -0.6990     3.0780 cc         1 7WN       0.147400
     11 C07          5.9810     0.1610     0.7740 ca         1 7WN       0.141600
     12 C08          5.3160     1.2150     0.1620 ca         1 7WN      -0.147000
     13 C09          5.0180     1.1830    -1.1960 ca         1 7WN      -0.091300
     14 C10          4.2800     2.3440    -1.8270 c6         1 7WN       0.194100
     15 N06          6.3070     0.2600     2.1390 nu         1 7WN      -0.640400
     16 N18          5.2100    -2.8090     3.7100 nd         1 7WN      -0.399300
     17 N19          5.7500    -2.6950     4.9070 n          1 7WN      -0.199800
     18 O01          6.9580    -1.5800     6.4720 o          1 7WN      -0.604500
     19 CL04         7.6090     0.7740     4.8090 cl         1 7WN      -0.080400
     20 H1           5.1920     2.6610    -3.6060 hn         1 7WN       0.354800
     21 H3           3.9170     1.1090    -4.9030 h1         1 7WN       0.058700
     22 H4           3.0050     0.7400    -3.4520 h1         1 7WN       0.058700
     23 H5           4.6840    -1.0020    -3.6850 hc         1 7WN       0.055700
     24 H6           5.9460     0.1640    -4.0070 hc         1 7WN       0.055700
     25 H7           6.3210    -1.8520    -1.9150 ha         1 7WN       0.136000
     26 H8           6.9180    -1.7560     0.4580 ha         1 7WN       0.146000
     27 H9           4.8960    -2.0420     1.8820 h4         1 7WN       0.055800
     28 H10          5.0260     2.0770     0.7540 ha         1 7WN       0.138000
     29 H11          4.6970     3.2860    -1.4640 h1         1 7WN       0.063700
     30 H12          3.2400     2.3220    -1.4810 h1         1 7WN       0.063700
     31 H13          4.9030    -4.5260     5.3210 h1         1 7WN       0.058033
     32 H14          6.4520    -4.2480     6.1380 h1         1 7WN       0.058033
     33 H15          4.9880    -3.4400     6.7200 h1         1 7WN       0.058033
     34 H16          6.6620     1.1520     2.4520 hn         1 7WN       0.458800
     35 C20          5.5130    -3.7900     5.8330 c3         1 7WN       0.099300
@<TRIPOS>BOND
     1     1     2 1   
     2     1    14 1   
     3     1    20 1   
     4     2     3 1   
     5     2    21 1   
     6     2    22 1   
     7     3     4 1   
     8     3    23 1   
     9     3    24 1   
    10     4     5 ar  
    11     4    13 ar  
    12     5     6 ar  
    13     5    25 1   
    14     6    11 ar  
    15     6    26 1   
    16     7    10 1   
    17     7    16 2   
    18     7    27 1   
    19     8     9 1   
    20     8    17 1   
    21     8    18 2   
    22     9    10 2   
    23     9    19 1   
    24    10    15 1   
    25    11    12 ar  
    26    11    15 1   
    27    12    13 ar  
    28    12    28 1   
    29    13    14 1   
    30    14    29 1   
    31    14    30 1   
    32    15    34 1   
    33    16    17 1   
    34    17    35 1   
    35    31    35 1   
    36    32    35 1   
    37    33    35 1   
@<TRIPOS>SUBSTRUCTURE
     1 7WN         1 TEMP              0 ****  ****    0 ROOT
