@<TRIPOS>MOLECULE
7WN
   35    37     1     0     0
SMALL
No Charge or Current Charge


@<TRIPOS>ATOM
      1 N11          4.4980     2.4770    -3.3700 n7         1 7WN      -0.842400
      2 C12          4.1040     1.1980    -4.0000 c6         1 7WN       0.150800
      3 C13          5.0220     0.0510    -3.5190 c6         1 7WN      -0.071100
      4 C14          5.2890     0.0820    -2.0100 ca         1 7WN      -0.082300
      5 C15          5.8920    -1.0240    -1.3850 ca         1 7WN      -0.088000
      6 C16          6.1610    -0.9980    -0.0060 ca         1 7WN      -0.131000
      7 C17          5.3340    -2.0240     2.9450 cc         1 7WN       0.315500
      8 C02          6.5760    -1.6110     5.4240 c          1 7WN       0.564200
      9 C03          6.6500    -0.5700     4.3680 cd         1 7WN      -0.140200
     10 C05          6.0480    -0.7750     3.1470 cc         1 7WN       0.147400
     11 C07          5.8240     0.1300     0.7610 ca         1 7WN       0.280000
     12 C08          5.2400     1.2420     0.1340 ca         1 7WN      -0.129000
     13 C09          4.9670     1.2290    -1.2480 ca         1 7WN      -0.091300
     14 C10          4.3000     2.4480    -1.9010 c6         1 7WN       0.194100
     15 N06          6.0940     0.1780     2.1320 nu         1 7WN      -0.834000
     16 N18          5.2050    -3.0220     3.8210 nd         1 7WN      -0.399300
     17 N19          5.8450    -2.7690     5.0400 n          1 7WN      -0.132800
     18 O01          7.0950    -1.4910     6.5300 o          1 7WN      -0.529000
     19 Cl04         7.5280     0.8920     4.7560 cl         1 7WN      -0.156000
     20 H1           5.4990     2.6210    -3.5520 hn         1 7WN       0.410000
     21 H3           4.1630     1.2810    -5.0960 h1         1 7WN       0.058700
     22 H4           3.0580     0.9670    -3.7430 h1         1 7WN       0.058700
     23 H5           4.5790    -0.9130    -3.8060 hc         1 7WN       0.055700
     24 H6           5.9830     0.1150    -4.0480 hc         1 7WN       0.055700
     25 H7           6.1600    -1.9020    -1.9700 ha         1 7WN       0.118000
     26 H8           6.6460    -1.8510     0.4590 ha         1 7WN       0.128000
     27 H9           4.8220    -2.2270     2.0150 h4         1 7WN       0.055800
     28 H10          4.9840     2.1180     0.7250 ha         1 7WN       0.120000
     29 H11          4.7040     3.3710    -1.4570 h1         1 7WN       0.063700
     30 H12          3.2230     2.4220    -1.6750 h1         1 7WN       0.063700
     31 H13          5.1330    -4.6990     5.6020 h1         1 7WN       0.058033
     32 H14          6.7090    -4.2360     6.2990 h1         1 7WN       0.058033
     33 H15          5.2030    -3.4990     6.9210 h1         1 7WN       0.058033
     34 H16          6.3240     1.1140     2.4770 hn         1 7WN       0.514000
     35 C20          5.7130    -3.8670     6.0220 c3         1 7WN       0.099300
@<TRIPOS>BOND
     1     1     2 1   
     2     1    14 1   
     3     1    20 1   
     4     2     3 1   
     5     2    21 1   
     6     2    22 1   
     7     3     4 1   
     8     3    23 1   
     9     3    24 1   
    10     4     5 ar  
    11     4    13 ar  
    12     5     6 ar  
    13     5    25 1   
    14     6    11 ar  
    15     6    26 1   
    16     7    10 1   
    17     7    16 2   
    18     7    27 1   
    19     8     9 1   
    20     8    17 1   
    21     8    18 2   
    22     9    10 2   
    23     9    19 1   
    24    10    15 1   
    25    11    12 ar  
    26    11    15 1   
    27    12    13 ar  
    28    12    28 1   
    29    13    14 1   
    30    14    29 1   
    31    14    30 1   
    32    15    34 1   
    33    16    17 1   
    34    17    35 1   
    35    31    35 1   
    36    32    35 1   
    37    33    35 1   
@<TRIPOS>SUBSTRUCTURE
     1 7WN         1 TEMP              0 ****  ****    0 ROOT
