@<TRIPOS>MOLECULE
7WO
   21    22     1     0     0
SMALL
No Charge or Current Charge


@<TRIPOS>ATOM
      1 C7          -3.3580     0.2900    -0.0340 ca         1 7WO      -0.128000
      2 C            1.7260     1.6210     0.0930 c          1 7WO       0.603500
      3 C1           0.9140     0.3420     0.0650 ca         1 7WO      -0.341600
      4 C10         -0.5150     0.3510     0.0320 ca         1 7WO       0.058000
      5 C9          -1.2760     1.5490     0.0230 ca         1 7WO      -0.132000
      6 C8          -2.6800     1.5150    -0.0090 ca         1 7WO      -0.078000
      7 C6          -2.6290    -0.9070    -0.0250 ca         1 7WO      -0.072000
      8 C5          -1.2210    -0.8820     0.0070 ca         1 7WO      -0.096000
      9 C4          -0.5280    -2.1020     0.0140 ca         1 7WO      -0.019000
     10 C3           0.8690    -2.1090     0.0460 ca         1 7WO      -0.169000
     11 C2           1.5820    -0.9070     0.0710 ca         1 7WO       0.255100
     12 O1           2.9390    -0.9770     0.1020 oh         1 7WO      -0.539100
     13 H1          -4.4450     0.2670    -0.0590 ha         1 7WO       0.118000
     14 H2           1.1910     2.5900     0.0880 h4         1 7WO       0.006200
     15 H5          -0.8160     2.5280     0.0410 ha         1 7WO       0.112000
     16 H6          -3.2450     2.4450    -0.0160 ha         1 7WO       0.114000
     17 H7          -3.1620    -1.8550    -0.0440 ha         1 7WO       0.114000
     18 H8          -1.0700    -3.0450    -0.0050 ha         1 7WO       0.118000
     19 H9           1.4050    -3.0550     0.0510 ha         1 7WO       0.137000
     20 H10          3.2550    -0.0370     0.1150 ho         1 7WO       0.523000
     21 O2           2.9550     1.6180     0.1200 o          1 7WO      -0.583100
@<TRIPOS>BOND
     1     1     6 ar  
     2     1     7 ar  
     3     1    13 1   
     4     2     3 1   
     5     2    14 1   
     6     2    21 2   
     7     3     4 ar  
     8     3    11 ar  
     9     4     5 ar  
    10     4     8 ar  
    11     5     6 ar  
    12     5    15 1   
    13     6    16 1   
    14     7     8 ar  
    15     7    17 1   
    16     8     9 ar  
    17     9    10 ar  
    18     9    18 1   
    19    10    11 ar  
    20    10    19 1   
    21    11    12 1   
    22    12    20 1   
@<TRIPOS>SUBSTRUCTURE
     1 7WO         1 TEMP              0 ****  ****    0 ROOT
