@<TRIPOS>MOLECULE
7WO
   21    22     1     0     0
SMALL
bcc


@<TRIPOS>ATOM
      1 C7          -3.3490     0.2850    -0.0330 ca         1 7WO      -0.146000
      2 C            1.6930     1.5580     0.0910 c          1 7WO       0.603500
      3 C1           0.9110     0.3440     0.0650 ca         1 7WO      -0.341600
      4 C10         -0.5260     0.3660     0.0320 ca         1 7WO       0.058000
      5 C9          -1.2910     1.5530     0.0230 ca         1 7WO      -0.150000
      6 C8          -2.6630     1.5100    -0.0090 ca         1 7WO      -0.096000
      7 C6          -2.6350    -0.8830    -0.0260 ca         1 7WO      -0.090000
      8 C5          -1.2260    -0.8660     0.0070 ca         1 7WO      -0.096000
      9 C4          -0.4910    -2.0800     0.0150 ca         1 7WO      -0.037000
     10 C3           0.8680    -2.0990     0.0470 ca         1 7WO      -0.187000
     11 C2           1.5870    -0.8810     0.0710 ca         1 7WO       0.255100
     12 O1           2.9060    -0.9630     0.1010 oh         1 7WO      -0.500100
     13 H1          -4.4300     0.2700    -0.0580 ha         1 7WO       0.136000
     14 H2           1.1530     2.5120     0.0860 h4         1 7WO       0.006200
     15 H5          -0.8130     2.5220     0.0420 ha         1 7WO       0.130000
     16 H6          -3.2220     2.4370    -0.0150 ha         1 7WO       0.132000
     17 H7          -3.1450    -1.8390    -0.0450 ha         1 7WO       0.132000
     18 H8          -1.0380    -3.0150    -0.0050 ha         1 7WO       0.136000
     19 H9           1.4160    -3.0320     0.0530 ha         1 7WO       0.155000
     20 H10          3.2650    -0.0420     0.1160 ho         1 7WO       0.484000
     21 O2           2.9220     1.5810     0.1180 o          1 7WO      -0.583100
@<TRIPOS>BOND
     1     1     6 ar  
     2     1     7 ar  
     3     1    13 1   
     4     2     3 1   
     5     2    14 1   
     6     2    21 2   
     7     3     4 ar  
     8     3    11 ar  
     9     4     5 ar  
    10     4     8 ar  
    11     5     6 ar  
    12     5    15 1   
    13     6    16 1   
    14     7     8 ar  
    15     7    17 1   
    16     8     9 ar  
    17     9    10 ar  
    18     9    18 1   
    19    10    11 ar  
    20    10    19 1   
    21    11    12 1   
    22    12    20 1   
@<TRIPOS>SUBSTRUCTURE
     1 7WO         1 TEMP              0 ****  ****    0 ROOT
