@<TRIPOS>MOLECULE
7WP
   20    21     1     0     0
SMALL
No Charge or Current Charge


@<TRIPOS>ATOM
      1 C2           0.0350    -0.3090    -0.0730 ca         1 7WP       0.017000
      2 N3           3.9740     0.5340    -0.1090 nv         1 7WP      -1.055900
      3 C4           2.6560     0.2490    -0.0980 ca         1 7WP       0.462900
      4 C5           0.4950     1.0460    -0.0700 ca         1 7WP       0.135000
      5 N           -1.2960    -0.6120    -0.0530 nb         1 7WP      -0.546000
      6 C           -3.6700     0.1690    -0.0130 c          1 7WP       0.491400
      7 C1          -2.1780     0.4260    -0.0350 ca         1 7WP       0.127500
      8 C3           1.0420    -1.3150    -0.0930 ca         1 7WP       0.471900
      9 C6          -1.7150     1.7550    -0.0360 ca         1 7WP       0.119900
     10 N1           0.7530    -2.6480    -0.0970 nv         1 7WP      -1.045900
     11 N2           2.3490    -1.0450    -0.1010 nb         1 7WP      -0.358000
     12 N4           1.8240     1.2950    -0.0840 nb         1 7WP      -0.282000
     13 N5          -0.4020     2.0590    -0.0530 nb         1 7WP      -0.123000
     14 H1           4.6210    -0.2140     0.1260 hn         1 7WP       0.509500
     15 H2           4.2630     1.4760     0.1410 hn         1 7WP       0.509500
     16 H3          -4.3080     1.0810    -0.0000 h4         1 7WP      -0.005800
     17 H6          -2.4060     2.5950    -0.0210 h4         1 7WP       0.029100
     18 H7          -0.2070    -2.9000     0.1270 hn         1 7WP       0.516500
     19 H8           1.4760    -3.2950     0.2040 hn         1 7WP       0.516500
     20 O1          -4.1860    -0.9470    -0.0090 o          1 7WP      -0.489100
@<TRIPOS>BOND
     1     1     4 ar  
     2     1     5 ar  
     3     1     8 ar  
     4     2     3 1   
     5     2    14 1   
     6     2    15 1   
     7     3    11 ar  
     8     3    12 ar  
     9     4    12 ar  
    10     4    13 ar  
    11     5     7 ar  
    12     6     7 1   
    13     6    16 1   
    14     6    20 2   
    15     7     9 ar  
    16     8    10 1   
    17     8    11 ar  
    18     9    13 ar  
    19     9    17 1   
    20    10    18 1   
    21    10    19 1   
@<TRIPOS>SUBSTRUCTURE
     1 7WP         1 TEMP              0 ****  ****    0 ROOT
