@<TRIPOS>MOLECULE
7WP
   20    21     1     0     0
SMALL
bcc


@<TRIPOS>ATOM
      1 C2           0.0210    -0.2930    -0.0230 ca         1 7WP       0.017000
      2 N3           3.9330     0.5560    -0.0420 nv         1 7WP      -0.945500
      3 C4           2.6260     0.2920    -0.0220 ca         1 7WP       0.988900
      4 C5           0.4960     1.0400    -0.0360 ca         1 7WP       0.661000
      5 N           -1.2590    -0.6020    -0.0220 nb         1 7WP      -0.546000
      6 C           -3.5650     0.1160    -0.0290 c          1 7WP       0.491400
      7 C1          -2.1180     0.4040    -0.0380 ca         1 7WP       0.127500
      8 C3           1.0310    -1.3330    -0.0010 ca         1 7WP       0.734900
      9 C6          -1.6570     1.7300    -0.0530 ca         1 7WP       0.382900
     10 N1           0.6460    -2.5980     0.0210 nv         1 7WP      -0.935500
     11 N2           2.3040    -1.0190    -0.0040 nb         1 7WP      -0.884000
     12 N4           1.7950     1.3340    -0.0320 nb         1 7WP      -0.808000
     13 N5          -0.3870     2.0530    -0.0490 nb         1 7WP      -0.649000
     14 H1           4.6040    -0.1860     0.0180 hn         1 7WP       0.454300
     15 H2           4.2660     1.5020    -0.0060 hn         1 7WP       0.454300
     16 H3          -4.2030     1.0180    -0.0420 h4         1 7WP      -0.005800
     17 H6          -2.3710     2.5480    -0.0640 h4         1 7WP       0.029100
     18 H7          -0.3310    -2.8350     0.0340 hn         1 7WP       0.461300
     19 H8           1.3240    -3.3380     0.0510 hn         1 7WP       0.461300
     20 O1          -4.0340    -0.9900    -0.0070 o          1 7WP      -0.489100
@<TRIPOS>BOND
     1     1     4 ar  
     2     1     5 ar  
     3     1     8 ar  
     4     2     3 1   
     5     2    14 1   
     6     2    15 1   
     7     3    11 ar  
     8     3    12 ar  
     9     4    12 ar  
    10     4    13 ar  
    11     5     7 ar  
    12     6     7 1   
    13     6    16 1   
    14     6    20 2   
    15     7     9 ar  
    16     8    10 1   
    17     8    11 ar  
    18     9    13 ar  
    19     9    17 1   
    20    10    18 1   
    21    10    19 1   
@<TRIPOS>SUBSTRUCTURE
     1 7WP         1 TEMP              0 ****  ****    0 ROOT
