@<TRIPOS>MOLECULE
7WQ
   19    19     1     0     0
SMALL
No Charge or Current Charge


@<TRIPOS>ATOM
      1 C           -3.8190    -0.3170     0.0030 c3         1 7WQ       0.148900
      2 O           -2.5160    -0.9260    -0.0170 os         1 7WQ      -0.338100
      3 C1          -1.3530    -0.1810    -0.0520 ca         1 7WQ       0.091100
      4 C2          -0.1290    -0.8700    -0.0700 ca         1 7WQ      -0.054000
      5 C3           1.1040    -0.1740    -0.1060 ca         1 7WQ      -0.254600
      6 C4           1.0870     1.2400    -0.1250 ca         1 7WQ       0.155100
      7 C5          -0.1370     1.9280    -0.1070 ca         1 7WQ      -0.129000
      8 C6          -1.3560     1.2290    -0.0710 ca         1 7WQ      -0.126000
      9 C7           2.3910    -0.9570    -0.1240 c          1 7WQ       0.586500
     10 O1           2.2350     1.9810    -0.1600 oh         1 7WQ      -0.532100
     11 H1          -4.5990    -1.0890     0.0310 h1         1 7WQ       0.041033
     12 H2          -3.9390     0.3180     0.8900 h1         1 7WQ       0.041033
     13 H3          -3.9780     0.2950    -0.8940 h1         1 7WQ       0.041033
     14 H4          -0.1460    -1.9580    -0.0550 ha         1 7WQ       0.148000
     15 H5          -0.1410     3.0150    -0.1220 ha         1 7WQ       0.132000
     16 H6          -2.2830     1.7960    -0.0590 ha         1 7WQ       0.122000
     17 H7           3.3310    -0.3640    -0.1530 h4         1 7WQ      -0.027800
     18 H10          3.0150     1.3910    -0.1690 ho         1 7WQ       0.469000
     19 O2           2.4340    -2.1820    -0.1090 o          1 7WQ      -0.511100
@<TRIPOS>BOND
     1     1     2 1   
     2     1    11 1   
     3     1    12 1   
     4     1    13 1   
     5     2     3 1   
     6     3     4 ar  
     7     3     8 ar  
     8     4     5 ar  
     9     4    14 1   
    10     5     6 ar  
    11     5     9 1   
    12     6     7 ar  
    13     6    10 1   
    14     7     8 ar  
    15     7    15 1   
    16     8    16 1   
    17     9    17 1   
    18     9    19 2   
    19    10    18 1   
@<TRIPOS>SUBSTRUCTURE
     1 7WQ         1 TEMP              0 ****  ****    0 ROOT
