@<TRIPOS>MOLECULE
7WQ
   19    19     1     0     0
SMALL
bcc


@<TRIPOS>ATOM
      1 C           -3.7290    -0.2910     0.0050 c3         1 7WQ       0.125700
      2 O           -2.4790    -0.9500    -0.0210 os         1 7WQ      -0.314900
      3 C1          -1.3590    -0.1970    -0.0560 ca         1 7WQ       0.091100
      4 C2          -0.1500    -0.8670    -0.0700 ca         1 7WQ      -0.072000
      5 C3           1.0670    -0.1800    -0.1050 ca         1 7WQ      -0.254600
      6 C4           1.0700     1.2240    -0.1220 ca         1 7WQ       0.155100
      7 C5          -0.1520     1.8920    -0.1120 ca         1 7WQ      -0.147000
      8 C6          -1.3480     1.2010    -0.0800 ca         1 7WQ      -0.144000
      9 C7           2.3070    -0.9650    -0.1290 c          1 7WQ       0.586500
     10 O1           2.1700     1.9990    -0.1510 oh         1 7WQ      -0.493100
     11 H1          -4.4880    -1.0670     0.0440 h1         1 7WQ       0.041033
     12 H2          -3.8360     0.3490     0.8850 h1         1 7WQ       0.041033
     13 H3          -3.8910     0.3140    -0.8910 h1         1 7WQ       0.041033
     14 H4          -0.1410    -1.9500    -0.0550 ha         1 7WQ       0.166000
     15 H5          -0.1630     2.9750    -0.1270 ha         1 7WQ       0.150000
     16 H6          -2.2660     1.7740    -0.0740 ha         1 7WQ       0.140000
     17 H7           3.2550    -0.4020    -0.1720 h4         1 7WQ      -0.027800
     18 H10          2.9860     1.4910    -0.1280 ho         1 7WQ       0.430000
     19 O2           2.3460    -2.1750    -0.1100 o          1 7WQ      -0.511100
@<TRIPOS>BOND
     1     1     2 1   
     2     1    11 1   
     3     1    12 1   
     4     1    13 1   
     5     2     3 1   
     6     3     4 ar  
     7     3     8 ar  
     8     4     5 ar  
     9     4    14 1   
    10     5     6 ar  
    11     5     9 1   
    12     6     7 ar  
    13     6    10 1   
    14     7     8 ar  
    15     7    15 1   
    16     8    16 1   
    17     9    17 1   
    18     9    19 2   
    19    10    18 1   
@<TRIPOS>SUBSTRUCTURE
     1 7WQ         1 TEMP              0 ****  ****    0 ROOT
