@<TRIPOS>MOLECULE
7WR
   20    20     1     0     0
SMALL
bcc


@<TRIPOS>ATOM
      1 C01          1.6150     2.9940    -0.0550 c3         1 7WR       0.140700
      2 C03          1.0250     0.6940    -0.0730 ca         1 7WR       0.051100
      3 C04         -0.3360     0.9480     0.0060 ca         1 7WR      -0.176000
      4 C05         -1.2440    -0.1100     0.0190 ca         1 7WR      -0.101600
      5 C06         -0.7770    -1.4150    -0.0490 ca         1 7WR      -0.136000
      6 C07          0.5860    -1.6750    -0.1290 ca         1 7WR       0.107100
      7 C09          1.4950    -0.6210    -0.1420 ca         1 7WR      -0.016900
      8 C11         -2.7370     0.1750     0.1120 c          1 7WR       0.924200
      9 O02          1.9980     1.6350    -0.0910 os         1 7WR      -0.363900
     10 O08          1.0040    -2.9590    -0.1950 oh         1 7WR      -0.512100
     11 O10          2.8130    -0.9260    -0.2150 oh         1 7WR      -0.539100
     12 O12         -3.0760     1.3720     0.1800 o          1 7WR      -0.824300
     13 O13         -3.4990    -0.8120     0.1100 o          1 7WR      -0.824300
     14 H1           2.5320     3.5770    -0.0960 h1         1 7WR       0.032367
     15 H2           0.9870     3.2630    -0.9080 h1         1 7WR       0.032367
     16 H3           1.0810     3.2410     0.8670 h1         1 7WR       0.032367
     17 H4          -0.7120     1.9600     0.0630 ha         1 7WR       0.155000
     18 H5          -1.4720    -2.2440    -0.0400 ha         1 7WR       0.164000
     19 H6           1.9670    -3.0000    -0.2410 ho         1 7WR       0.422000
     20 H7           3.3420    -0.1220    -0.2810 ho         1 7WR       0.432000
@<TRIPOS>BOND
     1     1     9 1   
     2     1    14 1   
     3     1    15 1   
     4     1    16 1   
     5     2     3 ar  
     6     2     7 ar  
     7     2     9 1   
     8     3     4 ar  
     9     3    17 1   
    10     4     5 ar  
    11     4     8 1   
    12     5     6 ar  
    13     5    18 1   
    14     6     7 ar  
    15     6    10 1   
    16     7    11 1   
    17     8    12 1   
    18     8    13 1   
    19    10    19 1   
    20    11    20 1   
@<TRIPOS>SUBSTRUCTURE
     1 7WR         1 TEMP              0 ****  ****    0 ROOT
