@<TRIPOS>MOLECULE
7WR
   20    20     1     0     0
SMALL
No Charge or Current Charge


@<TRIPOS>ATOM
      1 C01          1.6640     3.0530    -0.0540 c3         1 7WR       0.163900
      2 C03          1.0550     0.6550    -0.0890 ca         1 7WR       0.051100
      3 C04         -0.3300     0.9270    -0.0020 ca         1 7WR      -0.158000
      4 C05         -1.2790    -0.1270     0.0210 ca         1 7WR      -0.101600
      5 C06         -0.8080    -1.4610    -0.0440 ca         1 7WR      -0.118000
      6 C07          0.5650    -1.7310    -0.1300 ca         1 7WR       0.107100
      7 C09          1.4980    -0.6790    -0.1530 ca         1 7WR      -0.016900
      8 C11         -2.7730     0.1630     0.1140 c          1 7WR       0.713600
      9 O02          2.0100     1.6570    -0.1140 os         1 7WR      -0.387100
     10 O08          1.0140    -3.0160    -0.1920 oh         1 7WR      -0.551100
     11 O10          2.8410    -0.9450    -0.2370 oh         1 7WR      -0.578100
     12 O12         -3.1430     1.3280     0.1690 o          1 7WR      -0.719000
     13 O13         -3.5530    -0.7790     0.1320 o          1 7WR      -0.719000
     14 H1           2.5710     3.6710    -0.0880 h1         1 7WR       0.032367
     15 H2           1.0290     3.3350    -0.9040 h1         1 7WR       0.032367
     16 H3           1.1310     3.2830     0.8770 h1         1 7WR       0.032367
     17 H4          -0.6850     1.9520     0.0470 ha         1 7WR       0.137000
     18 H5          -1.5080    -2.2920    -0.0280 ha         1 7WR       0.146000
     19 H6           1.9940    -2.9490    -0.2460 ho         1 7WR       0.461000
     20 H7           3.3000    -0.0730    -0.2370 ho         1 7WR       0.471000
@<TRIPOS>BOND
     1     1     9 1   
     2     1    14 1   
     3     1    15 1   
     4     1    16 1   
     5     2     3 ar  
     6     2     7 ar  
     7     2     9 1   
     8     3     4 ar  
     9     3    17 1   
    10     4     5 ar  
    11     4     8 1   
    12     5     6 ar  
    13     5    18 1   
    14     6     7 ar  
    15     6    10 1   
    16     7    11 1   
    17     8    12 1   
    18     8    13 1   
    19    10    19 1   
    20    11    20 1   
@<TRIPOS>SUBSTRUCTURE
     1 7WR         1 TEMP              0 ****  ****    0 ROOT
