@<TRIPOS>MOLECULE
7WT
   61    62     1     0     0
SMALL
abcg2


@<TRIPOS>ATOM
      1 C10        146.5110   134.5580   111.5680 c3         1 7WT       0.173300
      2 C13        144.7230   136.7540   108.8990 ca         1 7WT      -0.075300
      3 C15        142.6780   137.9640   108.4400 ca         1 7WT      -0.112000
      4 C17        143.6630   136.6020   106.7280 ca         1 7WT      -0.112000
      5 C21        148.9670   132.4570   105.4850 c2         1 7WT      -0.266200
      6 C22        149.7070   132.5170   104.3780 c2         1 7WT      -0.168200
      7 C24        152.1660   132.5850   103.8930 c3         1 7WT      -0.047400
      8 C26        154.6870   132.7140   103.3060 c          1 7WT       0.717000
      9 C02        150.7760   131.7110   107.9590 c5         1 7WT       0.180300
     10 C03        149.4140   132.4000   107.9540 c5         1 7WT      -0.047700
     11 C04        149.3760   133.1540   109.2940 c5         1 7WT      -0.066700
     12 C05        150.2380   132.3170   110.2620 c5         1 7WT       0.175300
     13 C06        150.8620   131.2080   109.3950 c5         1 7WT      -0.155400
     14 C08        147.9600   133.4120   109.7970 c3         1 7WT      -0.063400
     15 C09        147.9080   134.3700   110.9800 c3         1 7WT      -0.114400
     16 C11        145.4700   135.0310   110.5600 c3         1 7WT      -0.065400
     17 C12        145.8130   136.3420   109.8480 c3         1 7WT      -0.031100
     18 C14        143.7040   137.6110   109.3080 ca         1 7WT      -0.107500
     19 C16        142.6530   137.4600   107.1470 ca         1 7WT      -0.118000
     20 C18        144.6870   136.2550   107.5980 ca         1 7WT      -0.107500
     21 C23        150.8860   133.3950   104.1030 c3         1 7WT      -0.059200
     22 C25        153.3640   133.4620   103.5670 c3         1 7WT      -0.206400
     23 O01        151.7690   132.6730   107.6670 oh         1 7WT      -0.639000
     24 O07        151.1890   133.1600   110.8830 oh         1 7WT      -0.649000
     25 O19        146.5250   135.4970   112.6280 oh         1 7WT      -0.666000
     26 O27        155.7350   133.3640   103.4980 o          1 7WT      -0.743500
     27 O28        154.6080   131.5360   102.9000 o          1 7WT      -0.743500
     28 H1         146.1730   133.5770   111.9380 h1         1 7WT       0.021700
     29 H2         141.8970   138.6360   108.7750 ha         1 7WT       0.108500
     30 H3         143.6550   136.2060   105.7200 ha         1 7WT       0.108500
     31 H4         149.8710   134.0420   106.6270 hc         1 7WT       0.046700
     32 H5         148.1660   133.7930   106.9150 hc         1 7WT       0.046700
     33 H6         148.1610   131.7270   105.5090 ha         1 7WT       0.144000
     34 H8         149.4520   131.8320   103.5720 ha         1 7WT       0.156000
     35 H10        152.0090   131.8580   103.0920 hc         1 7WT       0.037700
     36 H11        152.3660   132.0020   104.7970 hc         1 7WT       0.037700
     37 H12        150.8140   130.8840   107.2370 h1         1 7WT       0.051700
     38 H13        148.6670   131.5950   107.9950 hc         1 7WT       0.036700
     39 H14        149.8740   134.1220   109.1590 hc         1 7WT       0.086700
     40 H15        149.5960   131.8600   111.0270 h1         1 7WT       0.016700
     41 H16        150.2620   130.2980   109.4790 hc         1 7WT       0.046200
     42 H17        151.8770   130.9450   109.7060 hc         1 7WT       0.046200
     43 H18        147.3620   133.8180   108.9760 hc         1 7WT       0.037700
     44 H19        147.4930   132.4570   110.0660 hc         1 7WT       0.037700
     45 H20        148.5640   134.0030   111.7780 hc         1 7WT       0.050200
     46 H21        148.3170   135.3400   110.6790 hc         1 7WT       0.050200
     47 H22        144.5120   135.1410   111.0770 hc         1 7WT       0.047200
     48 H23        145.3170   134.2450   109.8160 hc         1 7WT       0.047200
     49 H24        146.7470   136.2290   109.2910 hc         1 7WT       0.056700
     50 H25        145.9780   137.1310   110.5840 hc         1 7WT       0.056700
     51 H26        143.7170   138.0120   110.3150 ha         1 7WT       0.113500
     52 H27        141.8560   137.7360   106.4680 ha         1 7WT       0.107000
     53 H28        145.4750   135.5900   107.2620 ha         1 7WT       0.113500
     54 H29        151.0390   134.1210   104.9040 hc         1 7WT       0.037700
     55 H30        150.6910   133.9800   103.1960 hc         1 7WT       0.037700
     56 H31        153.5170   134.1930   104.3670 hc         1 7WT       0.016200
     57 H32        153.1370   134.0570   102.6730 hc         1 7WT       0.016200
     58 H33        152.6300   132.2650   107.7990 ho         1 7WT       0.449000
     59 H34        151.6730   132.6350   111.5280 ho         1 7WT       0.432000
     60 H35        147.2000   135.2300   113.2600 ho         1 7WT       0.439000
     61 C20        149.1110   133.2680   106.7340 c3         1 7WT      -0.017200
@<TRIPOS>BOND
     1     1    15 1   
     2     1    16 1   
     3     1    25 1   
     4     1    28 1   
     5     2    17 1   
     6     2    18 ar  
     7     2    20 ar  
     8     3    18 ar  
     9     3    19 ar  
    10     3    29 1   
    11     4    19 ar  
    12     4    20 ar  
    13     4    30 1   
    14     5     6 2   
    15     5    33 1   
    16     5    61 1   
    17     6    21 1   
    18     6    34 1   
    19     7    21 1   
    20     7    22 1   
    21     7    35 1   
    22     7    36 1   
    23     8    22 1   
    24     8    26 1   
    25     8    27 1   
    26     9    10 1   
    27     9    13 1   
    28     9    23 1   
    29     9    37 1   
    30    10    11 1   
    31    10    38 1   
    32    10    61 1   
    33    11    12 1   
    34    11    14 1   
    35    11    39 1   
    36    12    13 1   
    37    12    24 1   
    38    12    40 1   
    39    13    41 1   
    40    13    42 1   
    41    14    15 1   
    42    14    43 1   
    43    14    44 1   
    44    15    45 1   
    45    15    46 1   
    46    16    17 1   
    47    16    47 1   
    48    16    48 1   
    49    17    49 1   
    50    17    50 1   
    51    18    51 1   
    52    19    52 1   
    53    20    53 1   
    54    21    54 1   
    55    21    55 1   
    56    22    56 1   
    57    22    57 1   
    58    23    58 1   
    59    24    59 1   
    60    25    60 1   
    61    31    61 1   
    62    32    61 1   
@<TRIPOS>SUBSTRUCTURE
     1 7WT         1 TEMP              0 ****  ****    0 ROOT
