@<TRIPOS>MOLECULE
7WT
   61    62     1     0     0
SMALL
No Charge or Current Charge


@<TRIPOS>ATOM
      1 C10        146.3350   134.3950   111.5260 c3         1 7WT       0.173300
      2 C13        144.7510   136.9620   108.9570 ca         1 7WT      -0.075300
      3 C15        142.7820   138.3240   108.4820 ca         1 7WT      -0.112000
      4 C17        143.8720   137.1010   106.6840 ca         1 7WT      -0.112000
      5 C21        148.9220   131.7660   105.5430 c2         1 7WT      -0.266200
      6 C22        149.6810   131.8510   104.4350 c2         1 7WT      -0.168200
      7 C24        152.0990   132.3970   103.8870 c3         1 7WT      -0.047400
      8 C26        154.5300   132.8620   103.3590 c          1 7WT       0.717000
      9 C02        151.0830   132.1120   107.8850 c5         1 7WT       0.180300
     10 C03        149.5320   132.2350   107.9910 c5         1 7WT      -0.047700
     11 C04        149.4040   133.1380   109.2600 c5         1 7WT      -0.066700
     12 C05        150.3590   132.3850   110.2490 c5         1 7WT       0.175300
     13 C06        151.4580   131.7310   109.3440 c5         1 7WT      -0.155400
     14 C08        147.9460   133.3290   109.7700 c3         1 7WT      -0.063400
     15 C09        147.7960   134.2100   111.0360 c3         1 7WT      -0.114400
     16 C11        145.3580   135.0300   110.4970 c3         1 7WT      -0.065400
     17 C12        145.7740   136.4160   109.9440 c3         1 7WT      -0.031100
     18 C14        143.7270   137.8250   109.3950 ca         1 7WT      -0.107500
     19 C16        142.8540   137.9630   107.1260 ca         1 7WT      -0.118000
     20 C18        144.8180   136.6020   107.5970 ca         1 7WT      -0.107500
     21 C23        150.6650   132.9440   104.0550 c3         1 7WT      -0.059200
     22 C25        153.1320   133.4870   103.5090 c3         1 7WT      -0.206400
     23 O01        151.7270   133.3270   107.4920 oh         1 7WT      -0.639000
     24 O07        150.9420   133.2570   111.2140 oh         1 7WT      -0.649000
     25 O19        146.3460   135.1880   112.7160 oh         1 7WT      -0.666000
     26 O27        155.2380   132.7870   104.3530 o          1 7WT      -0.743500
     27 O28        154.8540   132.4270   102.2650 o          1 7WT      -0.743500
     28 H1         145.9420   133.3980   111.7690 h1         1 7WT       0.021700
     29 H2         141.9930   138.9900   108.8260 ha         1 7WT       0.108500
     30 H3         143.9290   136.8200   105.6340 ha         1 7WT       0.108500
     31 H4         149.2200   133.7310   106.4320 hc         1 7WT       0.046700
     32 H5         147.7640   132.9130   106.9100 hc         1 7WT       0.046700
     33 H6         148.2640   130.9030   105.6620 ha         1 7WT       0.144000
     34 H8         149.6170   131.0550   103.6910 ha         1 7WT       0.156000
     35 H10        152.0980   131.6170   103.1140 hc         1 7WT       0.037700
     36 H11        152.4090   131.9150   104.8230 hc         1 7WT       0.037700
     37 H12        151.3610   131.3080   107.1890 h1         1 7WT       0.051700
     38 H13        149.0940   131.2490   108.1940 hc         1 7WT       0.036700
     39 H14        149.7880   134.1430   109.0500 hc         1 7WT       0.086700
     40 H15        149.8030   131.5900   110.7650 h1         1 7WT       0.016700
     41 H16        151.4410   130.6420   109.4680 hc         1 7WT       0.046200
     42 H17        152.4740   132.0520   109.6030 hc         1 7WT       0.046200
     43 H18        147.3550   133.7850   108.9690 hc         1 7WT       0.037700
     44 H19        147.4940   132.3490   109.9670 hc         1 7WT       0.037700
     45 H20        148.3670   133.7500   111.8500 hc         1 7WT       0.050200
     46 H21        148.2540   135.1890   110.8520 hc         1 7WT       0.050200
     47 H22        144.3720   135.1230   110.9680 hc         1 7WT       0.047200
     48 H23        145.2200   134.3380   109.6580 hc         1 7WT       0.047200
     49 H24        146.7500   136.3390   109.4510 hc         1 7WT       0.056700
     50 H25        145.9060   137.1160   110.7780 hc         1 7WT       0.056700
     51 H26        143.6630   138.1070   110.4430 ha         1 7WT       0.113500
     52 H27        142.1230   138.3490   106.4200 ha         1 7WT       0.107000
     53 H28        145.6010   135.9330   107.2470 ha         1 7WT       0.113500
     54 H29        150.6820   133.7480   104.7970 hc         1 7WT       0.037700
     55 H30        150.3470   133.4060   103.1120 hc         1 7WT       0.037700
     56 H31        153.1200   134.2100   104.3330 hc         1 7WT       0.016200
     57 H32        152.7930   133.9030   102.5520 hc         1 7WT       0.016200
     58 H33        152.6880   133.1360   107.4520 ho         1 7WT       0.449000
     59 H34        151.5530   132.7100   111.7520 ho         1 7WT       0.432000
     60 H35        146.9160   134.7210   113.3650 ho         1 7WT       0.439000
     61 C20        148.8270   132.7450   106.7040 c3         1 7WT      -0.017200
@<TRIPOS>BOND
     1     1    15 1   
     2     1    16 1   
     3     1    25 1   
     4     1    28 1   
     5     2    17 1   
     6     2    18 ar  
     7     2    20 ar  
     8     3    18 ar  
     9     3    19 ar  
    10     3    29 1   
    11     4    19 ar  
    12     4    20 ar  
    13     4    30 1   
    14     5     6 2   
    15     5    33 1   
    16     5    61 1   
    17     6    21 1   
    18     6    34 1   
    19     7    21 1   
    20     7    22 1   
    21     7    35 1   
    22     7    36 1   
    23     8    22 1   
    24     8    26 1   
    25     8    27 1   
    26     9    10 1   
    27     9    13 1   
    28     9    23 1   
    29     9    37 1   
    30    10    11 1   
    31    10    38 1   
    32    10    61 1   
    33    11    12 1   
    34    11    14 1   
    35    11    39 1   
    36    12    13 1   
    37    12    24 1   
    38    12    40 1   
    39    13    41 1   
    40    13    42 1   
    41    14    15 1   
    42    14    43 1   
    43    14    44 1   
    44    15    45 1   
    45    15    46 1   
    46    16    17 1   
    47    16    47 1   
    48    16    48 1   
    49    17    49 1   
    50    17    50 1   
    51    18    51 1   
    52    19    52 1   
    53    20    53 1   
    54    21    54 1   
    55    21    55 1   
    56    22    56 1   
    57    22    57 1   
    58    23    58 1   
    59    24    59 1   
    60    25    60 1   
    61    31    61 1   
    62    32    61 1   
@<TRIPOS>SUBSTRUCTURE
     1 7WT         1 TEMP              0 ****  ****    0 ROOT
