@<TRIPOS>MOLECULE
7WV
   14    14     1     0     0
SMALL
No Charge or Current Charge


@<TRIPOS>ATOM
      1 C01          2.8830    -1.1260    -0.1560 ca         1 7WV      -0.137000
      2 C02          2.0000    -2.2100    -0.0420 ca         1 7WV      -0.143000
      3 C03          0.6210    -1.9790     0.0870 ca         1 7WV      -0.127000
      4 C04          0.1190    -0.6650     0.0960 ca         1 7WV       0.017100
      5 C05          1.0020     0.4350    -0.0260 ca         1 7WV      -0.105600
      6 C06          2.3870     0.1900    -0.1450 ca         1 7WV      -0.092000
      7 C07          0.5020     1.8570    -0.0240 c          1 7WV       0.714600
      8 O08         -0.2690     2.2050    -0.9080 o          1 7WV      -0.704000
      9 O09          0.9550     2.6210     0.8170 o          1 7WV      -0.704000
     10 Br1         -1.7720    -0.4190     0.3190 br         1 7WV      -0.125100
     11 H1           3.9520    -1.3030    -0.2520 ha         1 7WV       0.089000
     12 H2           2.3830    -3.2280    -0.0480 ha         1 7WV       0.085000
     13 H3          -0.0610    -2.8200     0.1840 ha         1 7WV       0.099000
     14 H4           3.0790     1.0260    -0.2350 ha         1 7WV       0.135000
@<TRIPOS>BOND
     1     1     2 ar  
     2     1     6 ar  
     3     1    11 1   
     4     2     3 ar  
     5     2    12 1   
     6     3     4 ar  
     7     3    13 1   
     8     4     5 ar  
     9     4    10 1   
    10     5     6 ar  
    11     5     7 1   
    12     6    14 1   
    13     7     8 1   
    14     7     9 1   
@<TRIPOS>SUBSTRUCTURE
     1 7WV         1 TEMP              0 ****  ****    0 ROOT
