@<TRIPOS>MOLECULE
7WV
   14    14     1     0     0
SMALL
bcc


@<TRIPOS>ATOM
      1 C01          2.8610    -1.1160    -0.0440 ca         1 7WV      -0.155000
      2 C02          1.9940    -2.1990    -0.0250 ca         1 7WV      -0.161000
      3 C03          0.6280    -1.9770    -0.0050 ca         1 7WV      -0.145000
      4 C04          0.1280    -0.6770    -0.0050 ca         1 7WV       0.017100
      5 C05          0.9730     0.4350    -0.0240 ca         1 7WV      -0.105600
      6 C06          2.3460     0.1680    -0.0420 ca         1 7WV      -0.110000
      7 C07          0.5410     1.9110    -0.0280 c          1 7WV       0.925200
      8 O08         -0.6730     2.1550    -0.0720 o          1 7WV      -0.809300
      9 O09          1.4690     2.7410     0.0090 o          1 7WV      -0.809300
     10 BR1         -1.7670    -0.5610     0.0300 br         1 7WV      -0.125100
     11 H1           3.9320    -1.2700    -0.0600 ha         1 7WV       0.107000
     12 H2           2.3710    -3.2130    -0.0260 ha         1 7WV       0.103000
     13 H3          -0.0470    -2.8230     0.0130 ha         1 7WV       0.117000
     14 H4           3.0220     1.0110    -0.0540 ha         1 7WV       0.153000
@<TRIPOS>BOND
     1     1     2 ar  
     2     1     6 ar  
     3     1    11 1   
     4     2     3 ar  
     5     2    12 1   
     6     3     4 ar  
     7     3    13 1   
     8     4     5 ar  
     9     4    10 1   
    10     5     6 ar  
    11     5     7 1   
    12     6    14 1   
    13     7     8 1   
    14     7     9 1   
@<TRIPOS>SUBSTRUCTURE
     1 7WV         1 TEMP              0 ****  ****    0 ROOT
