@<TRIPOS>MOLECULE
7WY
   48    52     1     0     0
SMALL
No Charge or Current Charge


@<TRIPOS>ATOM
      1 C10         -0.2080    -0.8920    -0.4600 ca         1 7WY       0.296000
      2 C13          1.9840    -1.9590     0.9590 ca         1 7WY      -0.116000
      3 C15          1.0560    -0.2720    -0.4990 ca         1 7WY      -0.130000
      4 C17          4.3980    -0.1190     1.2360 ca         1 7WY      -0.018000
      5 C21          3.9320     0.5860    -1.0310 ca         1 7WY       0.404900
      6 C24         -2.0440     2.0790    -1.6690 ca         1 7WY      -0.156500
      7 C26         -2.0320     3.8540    -0.0030 ca         1 7WY       0.085000
      8 C28         -1.2960     1.6130     0.5910 ca         1 7WY      -0.156500
      9 C02         -2.2020    -3.6780     1.2380 cc         1 7WY       0.229300
     10 C03         -1.6620    -2.8020     0.3350 cd         1 7WY      -0.132000
     11 N04         -2.5040    -2.9190    -0.7430 na         1 7WY       0.137800
     12 N05         -3.5370    -3.7780    -0.4730 nd         1 7WY      -0.194800
     13 N06         -3.3570    -4.2200     0.7450 nc         1 7WY      -0.361000
     14 C07         -2.2650    -2.3750    -2.0780 c3         1 7WY       0.063600
     15 C08         -2.1920    -0.8420    -2.0760 c3         1 7WY       0.220800
     16 N09         -1.2960    -0.1940    -1.0690 nh         1 7WY      -0.864200
     17 C11         -0.3710    -2.0850     0.3030 ca         1 7WY      -0.033000
     18 C12          0.7350    -2.5950     1.0140 ca         1 7WY      -0.074000
     19 C14          2.1740    -0.7870     0.1960 cp         1 7WY       0.015000
     20 C16          3.5060    -0.1060     0.1360 cp         1 7WY      -0.161000
     21 C18          5.6300     0.5390     1.1130 ca         1 7WY      -0.233000
     22 C19          5.9230     1.1770    -0.0920 ca         1 7WY       0.609900
     23 N20          5.1230     1.2200    -1.1450 nb         1 7WY      -0.747000
     24 N22          7.0580     1.8390    -0.3210 nv         1 7WY      -1.056900
     25 C23         -1.5450     1.1600    -0.7210 ca         1 7WY       0.321000
     26 C25         -2.2860     3.4190    -1.3130 ca         1 7WY      -0.069500
     27 C27         -1.5370     2.9510     0.9500 ca         1 7WY      -0.069500
     28 H1           2.8190    -2.3990     1.4990 ha         1 7WY       0.121000
     29 H2           1.1600     0.6500    -1.0620 ha         1 7WY       0.128000
     30 H3           4.1370    -0.6150     2.1680 ha         1 7WY       0.118000
     31 H4           3.2960     0.6230    -1.9140 h4         1 7WY       0.018100
     32 H5          -2.2340     1.7670    -2.6910 ha         1 7WY       0.121500
     33 H6          -0.9240     0.9240     1.3440 ha         1 7WY       0.121500
     34 H7          -1.0420    -4.8810     2.5970 hc         1 7WY       0.048367
     35 H8          -1.2380    -3.1860     3.1020 hc         1 7WY       0.048367
     36 H9          -2.5860    -4.3190     3.2610 hc         1 7WY       0.048367
     37 H10         -1.3160    -2.7800    -2.4480 h1         1 7WY       0.080700
     38 H11         -3.0620    -2.7020    -2.7550 h1         1 7WY       0.080700
     39 H12         -1.8960    -0.5240    -3.0850 h1         1 7WY       0.056200
     40 H13         -3.2180    -0.4830    -1.9110 h1         1 7WY       0.056200
     41 H14          0.6520    -3.5160     1.5810 ha         1 7WY       0.126000
     42 H15          6.3390     0.5540     1.9350 ha         1 7WY       0.123000
     43 H16          7.5730     2.1700     0.4880 hn         1 7WY       0.478000
     44 H17          7.0450     2.4480    -1.1300 hn         1 7WY       0.478000
     45 H18         -2.6670     4.1190    -2.0530 ha         1 7WY       0.128000
     46 H19         -1.3430     3.2870     1.9660 ha         1 7WY       0.128000
     47 C01         -1.7400    -4.0350     2.6240 c3         1 7WY      -0.110400
     48 Cl          -2.3340     5.5280     0.4420 cl         1 7WY      -0.206000
@<TRIPOS>BOND
     1     1     3 ar  
     2     1    16 1   
     3     1    17 ar  
     4     2    18 ar  
     5     2    19 ar  
     6     2    28 1   
     7     3    19 ar  
     8     3    29 1   
     9     4    20 ar  
    10     4    21 ar  
    11     4    30 1   
    12     5    20 ar  
    13     5    23 ar  
    14     5    31 1   
    15     6    25 ar  
    16     6    26 ar  
    17     6    32 1   
    18     7    26 ar  
    19     7    27 ar  
    20     7    48 1   
    21     8    25 ar  
    22     8    27 ar  
    23     8    33 1   
    24     9    10 2   
    25     9    13 1   
    26     9    47 1   
    27    10    11 1   
    28    10    17 1   
    29    11    12 1   
    30    11    14 1   
    31    12    13 2   
    32    14    15 1   
    33    14    37 1   
    34    14    38 1   
    35    15    16 1   
    36    15    39 1   
    37    15    40 1   
    38    16    25 1   
    39    17    18 ar  
    40    18    41 1   
    41    19    20 1   
    42    21    22 ar  
    43    21    42 1   
    44    22    23 ar  
    45    22    24 1   
    46    24    43 1   
    47    24    44 1   
    48    26    45 1   
    49    27    46 1   
    50    34    47 1   
    51    35    47 1   
    52    36    47 1   
@<TRIPOS>SUBSTRUCTURE
     1 7WY         1 TEMP              0 ****  ****    0 ROOT
