@<TRIPOS>MOLECULE
7WY
   48    52     1     0     0
SMALL
bcc


@<TRIPOS>ATOM
      1 C10         -0.1810    -0.8920    -0.4020 ca         1 7WY       0.157600
      2 C13          2.0360    -2.0020     0.8630 ca         1 7WY      -0.134000
      3 C15          1.0570    -0.2650    -0.4630 ca         1 7WY      -0.148000
      4 C17          4.4020    -0.1400     1.1430 ca         1 7WY      -0.036000
      5 C21          3.8760     0.5710    -1.0520 ca         1 7WY       0.470200
      6 C24         -2.2000     1.9340    -1.5240 ca         1 7WY      -0.174500
      7 C26         -2.1460     3.7020     0.0950 ca         1 7WY      -0.006600
      8 C28         -1.2540     1.5480     0.6470 ca         1 7WY      -0.174500
      9 C02         -2.3080    -3.4880     1.2520 cc         1 7WY       0.294600
     10 C03         -1.5830    -2.8030     0.3000 cd         1 7WY      -0.146600
     11 N04         -2.3460    -2.8880    -0.8080 na         1 7WY       0.116400
     12 N05         -3.4550    -3.5590    -0.5790 nd         1 7WY      -0.194800
     13 N06         -3.4410    -3.9210     0.6600 nc         1 7WY      -0.361000
     14 C07         -1.9810    -2.3580    -2.1010 c3         1 7WY       0.034300
     15 C08         -2.0010    -0.8400    -2.1060 c3         1 7WY       0.220800
     16 N09         -1.3220    -0.2670    -0.9560 nh         1 7WY      -0.587400
     17 C11         -0.3060    -2.1110     0.2810 ca         1 7WY      -0.033000
     18 C12          0.8150    -2.6490     0.9080 ca         1 7WY      -0.092000
     19 C14          2.1800    -0.8000     0.1650 cp         1 7WY       0.015000
     20 C16          3.4810    -0.1220     0.0860 cp         1 7WY      -0.226300
     21 C18          5.6060     0.5090     1.0260 ca         1 7WY      -0.316300
     22 C19          5.8940     1.1890    -0.1730 ca         1 7WY       0.675200
     23 N20          5.0320     1.2050    -1.1880 nb         1 7WY      -0.747000
     24 N22          7.0840     1.8170    -0.3540 nv         1 7WY      -0.946500
     25 C23         -1.5790     1.0600    -0.6270 ca         1 7WY       0.182600
     26 C25         -2.4870     3.2430    -1.1630 ca         1 7WY      -0.087500
     27 C27         -1.5270     2.8540     1.0030 ca         1 7WY      -0.087500
     28 H1           2.8900    -2.4560     1.3490 ha         1 7WY       0.139000
     29 H2           1.1290     0.6840    -0.9820 ha         1 7WY       0.146000
     30 H3           4.1630    -0.6510     2.0680 ha         1 7WY       0.136000
     31 H4           3.2240     0.6020    -1.9200 h4         1 7WY       0.018100
     32 H5          -2.4600     1.6150    -2.5240 ha         1 7WY       0.139500
     33 H6          -0.7890     0.9000     1.3780 ha         1 7WY       0.139500
     34 H7          -1.3290    -4.6090     2.7960 hc         1 7WY       0.048367
     35 H8          -1.4790    -2.8910     3.1300 hc         1 7WY       0.048367
     36 H9          -2.8930    -3.9410     3.2490 hc         1 7WY       0.048367
     37 H10         -0.9970    -2.7470    -2.3650 h1         1 7WY       0.080700
     38 H11         -2.6920    -2.7300    -2.8370 h1         1 7WY       0.080700
     39 H12         -1.5700    -0.5060    -3.0570 h1         1 7WY       0.056200
     40 H13         -3.0400    -0.5060    -2.0820 h1         1 7WY       0.056200
     41 H14          0.7320    -3.5950     1.4280 ha         1 7WY       0.144000
     42 H15          6.3180     0.5090     1.8410 ha         1 7WY       0.141000
     43 H16          7.6230     2.0650     0.4590 hn         1 7WY       0.422800
     44 H17          7.1450     2.4700    -1.1180 hn         1 7WY       0.422800
     45 H18         -2.9670     3.8990    -1.8780 ha         1 7WY       0.146000
     46 H19         -1.2680     3.2030     1.9940 ha         1 7WY       0.146000
     47 C01         -1.9850    -3.7450     2.6800 c3         1 7WY      -0.110400
     48 CL          -2.4940     5.3430     0.5430 cl         1 7WY      -0.114400
@<TRIPOS>BOND
     1     1     3 ar  
     2     1    16 1   
     3     1    17 ar  
     4     2    18 ar  
     5     2    19 ar  
     6     2    28 1   
     7     3    19 ar  
     8     3    29 1   
     9     4    20 ar  
    10     4    21 ar  
    11     4    30 1   
    12     5    20 ar  
    13     5    23 ar  
    14     5    31 1   
    15     6    25 ar  
    16     6    26 ar  
    17     6    32 1   
    18     7    26 ar  
    19     7    27 ar  
    20     7    48 1   
    21     8    25 ar  
    22     8    27 ar  
    23     8    33 1   
    24     9    10 2   
    25     9    13 1   
    26     9    47 1   
    27    10    11 1   
    28    10    17 1   
    29    11    12 1   
    30    11    14 1   
    31    12    13 2   
    32    14    15 1   
    33    14    37 1   
    34    14    38 1   
    35    15    16 1   
    36    15    39 1   
    37    15    40 1   
    38    16    25 1   
    39    17    18 ar  
    40    18    41 1   
    41    19    20 1   
    42    21    22 ar  
    43    21    42 1   
    44    22    23 ar  
    45    22    24 1   
    46    24    43 1   
    47    24    44 1   
    48    26    45 1   
    49    27    46 1   
    50    34    47 1   
    51    35    47 1   
    52    36    47 1   
@<TRIPOS>SUBSTRUCTURE
     1 7WY         1 TEMP              0 ****  ****    0 ROOT
