@<TRIPOS>MOLECULE
7WZ
   31    32     1     0     0
SMALL
abcg2


@<TRIPOS>ATOM
      1 C11         -7.9480     1.6270    21.0160 c3         1 7WZ       0.199100
      2 C15         -6.6390     0.9900    13.1850 cc         1 7WZ      -0.139200
      3 C14         -7.5620    -0.2130    17.7080 ca         1 7WZ      -0.137000
      4 C17         -7.0250     1.7440    12.0280 c          1 7WZ       0.564200
      5 C04         -8.1770     2.2430    14.4830 cd         1 7WZ       0.317500
      6 C05         -7.1760     1.2160    14.4280 cd         1 7WZ       0.147400
      7 C07         -7.1350     0.8050    16.8590 ca         1 7WZ       0.280000
      8 C08         -6.9670     2.0880    17.3680 ca         1 7WZ      -0.137000
      9 C09         -7.2580     2.3470    18.7000 ca         1 7WZ      -0.077000
     10 C10         -7.6820     1.3390    19.5600 ca         1 7WZ      -0.094300
     11 C13         -7.8230     0.0530    19.0420 ca         1 7WZ      -0.077000
     12 N02         -7.9920     2.7040    12.2800 n          1 7WZ      -0.133800
     13 N03         -8.5440     2.9290    13.4570 nc         1 7WZ      -0.400300
     14 N12         -9.1530     0.9640    21.4860 n8         1 7WZ      -1.000200
     15 CL16        -5.4440    -0.2240    12.9450 cl         1 7WZ      -0.156000
     16 H1          -7.1090     1.2490    21.6070 h1         1 7WZ       0.036700
     17 H2          -7.9510     2.7160    21.1630 h1         1 7WZ       0.036700
     18 H3          -7.6920    -1.2160    17.3190 ha         1 7WZ       0.123500
     19 H4          -9.2290     4.1860    11.5630 h1         1 7WZ       0.057700
     20 H5          -7.6420     4.1290    10.7750 h1         1 7WZ       0.057700
     21 H6          -8.8680     2.9150    10.3810 h1         1 7WZ       0.057700
     22 H7          -8.6890     2.4730    15.4060 h4         1 7WZ       0.055800
     23 H8          -6.6000     2.8870    16.7360 ha         1 7WZ       0.123500
     24 H9          -7.1350     3.3560    19.0760 ha         1 7WZ       0.125000
     25 H10         -8.1550    -0.7500    19.6860 ha         1 7WZ       0.125000
     26 H11         -6.3090    -0.3500    15.3610 hn         1 7WZ       0.514000
     27 H12         -9.2360     1.0880    22.4860 hn         1 7WZ       0.399000
     28 H13         -9.9660     1.4090    21.0790 hn         1 7WZ       0.399000
     29 N06         -6.8350     0.4970    15.5200 nu         1 7WZ      -0.835000
     30 O18         -6.5680     1.5980    10.9030 o          1 7WZ      -0.529000
     31 C01         -8.4560     3.5300    11.1790 c3         1 7WZ       0.098300
@<TRIPOS>BOND
     1     1    10 1   
     2     1    14 1   
     3     1    16 1   
     4     1    17 1   
     5     2     4 1   
     6     2     6 2   
     7     2    15 1   
     8     3     7 ar  
     9     3    11 ar  
    10     3    18 1   
    11     4    12 1   
    12     4    30 2   
    13     5     6 1   
    14     5    13 2   
    15     5    22 1   
    16     6    29 1   
    17     7     8 ar  
    18     7    29 1   
    19     8     9 ar  
    20     8    23 1   
    21     9    10 ar  
    22     9    24 1   
    23    10    11 ar  
    24    11    25 1   
    25    12    13 1   
    26    12    31 1   
    27    14    27 1   
    28    14    28 1   
    29    19    31 1   
    30    20    31 1   
    31    21    31 1   
    32    26    29 1   
@<TRIPOS>SUBSTRUCTURE
     1 7WZ         1 TEMP              0 ****  ****    0 ROOT
