@<TRIPOS>MOLECULE
7WZ
   31    32     1     0     0
SMALL
No Charge or Current Charge


@<TRIPOS>ATOM
      1 C11         -7.8050     1.3770    21.1790 c3         1 7WZ       0.199100
      2 C15         -6.6980     0.9940    13.1980 cc         1 7WZ      -0.139200
      3 C14         -7.3120    -0.3080    17.7670 ca         1 7WZ      -0.137000
      4 C17         -6.9870     1.7420    11.9470 c          1 7WZ       0.564200
      5 C04         -8.3250     2.3710    14.3820 cd         1 7WZ       0.317500
      6 C05         -7.3320     1.3050    14.3900 cd         1 7WZ       0.147400
      7 C07         -7.2450     0.7960    16.9010 ca         1 7WZ       0.280000
      8 C08         -7.3360     2.0940    17.4370 ca         1 7WZ      -0.137000
      9 C09         -7.5220     2.2840    18.8180 ca         1 7WZ      -0.077000
     10 C10         -7.6110     1.1760    19.6820 ca         1 7WZ      -0.094300
     11 C13         -7.5000    -0.1230    19.1490 ca         1 7WZ      -0.077000
     12 N02         -7.9590     2.7600    12.1120 n          1 7WZ      -0.133800
     13 N03         -8.6190     3.0700    13.2860 nc         1 7WZ      -0.400300
     14 N12         -9.2250     1.2610    21.5570 n8         1 7WZ      -1.000200
     15 Cl16        -5.5110    -0.2900    13.0760 cl         1 7WZ      -0.156000
     16 H1          -7.2270     0.6250    21.7340 h1         1 7WZ       0.036700
     17 H2          -7.4390     2.3720    21.4720 h1         1 7WZ       0.036700
     18 H3          -7.2310    -1.3160    17.3700 ha         1 7WZ       0.123500
     19 H4          -9.0930     4.3300    11.2260 h1         1 7WZ       0.057700
     20 H5          -7.4560     4.1010    10.5540 h1         1 7WZ       0.057700
     21 H6          -8.7570     2.9390    10.1600 h1         1 7WZ       0.057700
     22 H7          -8.8970     2.6550    15.2550 h4         1 7WZ       0.055800
     23 H8          -7.2360     2.9630    16.7950 ha         1 7WZ       0.123500
     24 H9          -7.5900     3.2940    19.2170 ha         1 7WZ       0.125000
     25 H10         -7.5620    -0.9880    19.8060 ha         1 7WZ       0.125000
     26 H11         -6.5810    -0.3150    15.3270 hn         1 7WZ       0.514000
     27 H12         -9.3240     1.4910    22.5540 hn         1 7WZ       0.399000
     28 H13         -9.7520     2.0040    21.0830 hn         1 7WZ       0.399000
     29 N06         -7.0450     0.5730    15.5350 nu         1 7WZ      -0.835000
     30 O18         -6.4460     1.5110    10.8700 o          1 7WZ      -0.529000
     31 C01         -8.3410     3.5830    10.9450 c3         1 7WZ       0.098300
@<TRIPOS>BOND
     1     1    10 1   
     2     1    14 1   
     3     1    16 1   
     4     1    17 1   
     5     2     4 1   
     6     2     6 2   
     7     2    15 1   
     8     3     7 ar  
     9     3    11 ar  
    10     3    18 1   
    11     4    12 1   
    12     4    30 2   
    13     5     6 1   
    14     5    13 2   
    15     5    22 1   
    16     6    29 1   
    17     7     8 ar  
    18     7    29 1   
    19     8     9 ar  
    20     8    23 1   
    21     9    10 ar  
    22     9    24 1   
    23    10    11 ar  
    24    11    25 1   
    25    12    13 1   
    26    12    31 1   
    27    14    27 1   
    28    14    28 1   
    29    19    31 1   
    30    20    31 1   
    31    21    31 1   
    32    26    29 1   
@<TRIPOS>SUBSTRUCTURE
     1 7WZ         1 TEMP              0 ****  ****    0 ROOT
