@<TRIPOS>MOLECULE
7X1
   60    64     1     0     0
SMALL
abcg2


@<TRIPOS>ATOM
      1 C1           9.5940    10.6980    10.5270 c3         1 7X1       0.142900
      2 O2          10.9560    10.8310    10.8830 os         1 7X1      -0.317100
      3 C3          11.5840     9.7640    11.3940 ca         1 7X1       0.113100
      4 C4          11.0170     8.5380    11.6140 ca         1 7X1      -0.155000
      5 C5          11.7840     7.4780    12.1510 ca         1 7X1      -0.163000
      6 C6          11.2970     6.1590    12.3950 ca         1 7X1       0.407900
      7 N7          10.0120     5.8300    12.1000 nu         1 7X1      -0.937900
      8 C8           9.4760     4.5610    12.3240 ca         1 7X1       0.306000
      9 C9           9.4070     4.0060    13.5830 ca         1 7X1       0.074100
     10 O10          9.7910     4.5530    14.7520 os         1 7X1      -0.320100
     11 C11          9.7000     3.5130    15.7180 c5         1 7X1       0.370600
     12 O12          8.9170     2.4800    15.1340 os         1 7X1      -0.341100
     13 C13          8.8650     2.7520    13.8090 ca         1 7X1       0.066100
     14 C14          8.3330     1.9930    12.7970 ca         1 7X1      -0.097000
     15 C15          8.3730     2.5380    11.5100 ca         1 7X1      -0.092000
     16 C16          8.9390     3.7790    11.2860 ca         1 7X1       0.090000
     17 CL1          9.0020     4.4080     9.6740 cl         1 7X1      -0.195000
     18 N18         12.0710     5.2260    12.9060 nb         1 7X1      -0.263000
     19 C19         13.3340     5.5610    13.1930 ca         1 7X1       0.162900
     20 N20         13.9100     6.7150    13.0130 nb         1 7X1      -0.206000
     21 C21         13.1330     7.6930    12.4810 ca         1 7X1       0.066000
     22 C22         13.7040     8.9640    12.2600 ca         1 7X1      -0.192000
     23 C23         12.9600     9.9840    11.7260 ca         1 7X1       0.163100
     24 O24         13.4060    11.2160    11.4800 os         1 7X1      -0.323100
     25 C25         14.7480    11.5350    11.8310 c3         1 7X1       0.158600
     26 C26         15.0210    12.9760    11.4680 c3         1 7X1      -0.076400
     27 C27         14.9360    13.2510     9.9710 c3         1 7X1       0.170800
     28 N28         15.2760    14.6200     9.6290 n3         1 7X1      -0.719600
     29 C29         16.7040    14.8750     9.7380 c6         1 7X1       0.167300
     30 C30         17.0340    16.3360     9.4720 c6         1 7X1      -0.075400
     31 C31         16.5240    16.7680     8.1050 c6         1 7X1      -0.075400
     32 C32         15.0430    16.4330     7.9810 c6         1 7X1      -0.075400
     33 C33         14.7920    14.9680     8.3020 c6         1 7X1       0.167300
     34 H1C1         8.9690    10.4610    11.3920 h1         1 7X1       0.041700
     35 H1C2         9.2860    11.6600    10.1240 h1         1 7X1       0.041700
     36 H1C3         9.4470     9.9310     9.7630 h1         1 7X1       0.041700
     37 H4           9.9720     8.3930    11.3790 ha         1 7X1       0.115000
     38 H7           9.4730     6.4530    11.5230 hn         1 7X1       0.510000
     39 H111        10.7010     3.1360    15.9520 h2         1 7X1       0.069700
     40 H112         9.2100     3.8870    16.6160 h2         1 7X1       0.069700
     41 H14          7.8950     1.0220    12.9760 ha         1 7X1       0.140000
     42 H15          7.9690     1.9750    10.6800 ha         1 7X1       0.136000
     43 H19         13.9420     4.7680    13.6170 h5         1 7X1       0.044100
     44 H22         14.7430     9.0950    12.5280 ha         1 7X1       0.142000
     45 H251        14.8950    11.3830    12.9050 h1         1 7X1       0.039700
     46 H252        15.4410    10.8690    11.3040 h1         1 7X1       0.039700
     47 H261        14.3360    13.6360    12.0060 hc         1 7X1       0.059200
     48 H262        16.0230    13.1930    11.8460 hc         1 7X1       0.059200
     49 H271        15.5710    12.5270     9.4270 h1         1 7X1       0.037700
     50 H272        13.9110    13.0690     9.6380 h1         1 7X1       0.037700
     51 H291        17.0470    14.6110    10.7400 h1         1 7X1       0.028450
     52 H292        17.2710    14.2390     9.0340 h1         1 7X1       0.028450
     53 H331        15.2680    14.3430     7.5230 h1         1 7X1       0.028450
     54 H332        13.7200    14.7580     8.2580 h1         1 7X1       0.028450
     55 H301        16.5750    16.9540    10.2510 hc         1 7X1       0.045700
     56 H302        18.1140    16.4780     9.5480 hc         1 7X1       0.045700
     57 H311        16.6950    17.8340     7.9440 hc         1 7X1       0.038200
     58 H312        17.0810    16.2380     7.3250 hc         1 7X1       0.038200
     59 H321        14.4660    17.0560     8.6720 hc         1 7X1       0.045700
     60 H322        14.6770    16.6490     6.9750 hc         1 7X1       0.045700
@<TRIPOS>BOND
     1     1     2 1   
     2     1    34 1   
     3     1    35 1   
     4     1    36 1   
     5     2     3 1   
     6     3     4 ar  
     7     3    23 ar  
     8     4     5 ar  
     9     4    37 1   
    10     5     6 ar  
    11     5    21 ar  
    12     6     7 1   
    13     6    18 ar  
    14     7     8 1   
    15     7    38 1   
    16     8     9 ar  
    17     8    16 ar  
    18     9    10 1   
    19     9    13 ar  
    20    10    11 1   
    21    11    12 1   
    22    11    39 1   
    23    11    40 1   
    24    12    13 1   
    25    13    14 ar  
    26    14    15 ar  
    27    14    41 1   
    28    15    16 ar  
    29    15    42 1   
    30    16    17 1   
    31    18    19 ar  
    32    19    20 ar  
    33    19    43 1   
    34    20    21 ar  
    35    21    22 ar  
    36    22    23 ar  
    37    22    44 1   
    38    23    24 1   
    39    24    25 1   
    40    25    26 1   
    41    25    45 1   
    42    25    46 1   
    43    26    27 1   
    44    26    47 1   
    45    26    48 1   
    46    27    28 1   
    47    27    49 1   
    48    27    50 1   
    49    28    29 1   
    50    28    33 1   
    51    29    30 1   
    52    29    51 1   
    53    29    52 1   
    54    30    31 1   
    55    30    55 1   
    56    30    56 1   
    57    31    32 1   
    58    31    57 1   
    59    31    58 1   
    60    32    33 1   
    61    32    59 1   
    62    32    60 1   
    63    33    53 1   
    64    33    54 1   
@<TRIPOS>SUBSTRUCTURE
     1 7X1         1 TEMP              0 ****  ****    0 ROOT
