@<TRIPOS>MOLECULE
7X1
   60    64     1     0     0
SMALL
No Charge or Current Charge


@<TRIPOS>ATOM
      1 C1           9.7340    10.4710    10.3370 c3         1 7X1       0.142900
      2 O2          11.0920    10.6380    10.7820 os         1 7X1      -0.317100
      3 C3          11.8190     9.6140    11.3690 ca         1 7X1       0.113100
      4 C4          11.2670     8.3290    11.5730 ca         1 7X1      -0.155000
      5 C5          12.0400     7.3070    12.1750 ca         1 7X1      -0.163000
      6 C6          11.5390     6.0010    12.4070 ca         1 7X1       0.407900
      7 N7          10.2650     5.6160    11.9920 nu         1 7X1      -0.937900
      8 C8           9.4270     4.5200    12.3060 ca         1 7X1       0.306000
      9 C9           9.3640     3.9360    13.5960 ca         1 7X1       0.074100
     10 O10         10.0270     4.3470    14.7180 os         1 7X1      -0.320100
     11 C11          9.6820     3.3120    15.7000 c5         1 7X1       0.370600
     12 O12          8.5820     2.4960    15.1690 os         1 7X1      -0.341100
     13 C13          8.5250     2.8870    13.8690 ca         1 7X1       0.066100
     14 C14          7.6810     2.3360    12.9000 ca         1 7X1      -0.097000
     15 C15          7.7050     2.8960    11.6070 ca         1 7X1      -0.092000
     16 C16          8.5630     3.9810    11.3130 ca         1 7X1       0.090000
     17 Cl1          8.5360     4.6560     9.6790 cl         1 7X1      -0.195000
     18 N18         12.2990     5.0460    12.9700 nb         1 7X1      -0.263000
     19 C19         13.5470     5.4000    13.3260 ca         1 7X1       0.162900
     20 N20         14.1160     6.6100    13.1600 nb         1 7X1      -0.206000
     21 C21         13.3700     7.5730    12.5810 ca         1 7X1       0.066000
     22 C22         13.9120     8.8530    12.3760 ca         1 7X1      -0.192000
     23 C23         13.1490     9.8750    11.7720 ca         1 7X1       0.163100
     24 O24         13.6660    11.1430    11.5600 os         1 7X1      -0.323100
     25 C25         15.0130    11.5010    11.9170 c3         1 7X1       0.158600
     26 C26         15.2400    12.9740    11.5260 c3         1 7X1      -0.076400
     27 C27         15.1440    13.2250    10.0030 c3         1 7X1       0.170800
     28 N28         15.2630    14.6490     9.5930 n3         1 7X1      -0.719600
     29 C29         16.5960    15.2530     9.8950 c6         1 7X1       0.167300
     30 C30         16.6410    16.7600     9.5350 c6         1 7X1      -0.075400
     31 C31         16.2590    16.9930     8.0570 c6         1 7X1      -0.075400
     32 C32         14.8960    16.3310     7.7530 c6         1 7X1      -0.075400
     33 C33         14.9040    14.8360     8.1580 c6         1 7X1       0.167300
     34 H1C1         9.0800    10.1980    11.1750 h1         1 7X1       0.041700
     35 H1C2         9.3590    11.4070     9.9050 h1         1 7X1       0.041700
     36 H1C3         9.6690     9.6910     9.5680 h1         1 7X1       0.041700
     37 H4          10.2430     8.1260    11.2770 ha         1 7X1       0.115000
     38 H7           9.9410     6.1480    11.1870 hn         1 7X1       0.510000
     39 H111        10.5550     2.6680    15.8560 h2         1 7X1       0.069700
     40 H112         9.3820     3.7770    16.6460 h2         1 7X1       0.069700
     41 H14          7.0170     1.5100    13.1430 ha         1 7X1       0.140000
     42 H15          7.0540     2.4970    10.8320 ha         1 7X1       0.136000
     43 H19         14.1610     4.6300    13.7880 h5         1 7X1       0.044100
     44 H22         14.9340     9.0340    12.6950 ha         1 7X1       0.142000
     45 H251        15.1670    11.3870    12.9980 h1         1 7X1       0.039700
     46 H252        15.7380    10.8660    11.3900 h1         1 7X1       0.039700
     47 H261        14.5080    13.6020    12.0470 hc         1 7X1       0.059200
     48 H262        16.2310    13.2660    11.8890 hc         1 7X1       0.059200
     49 H271        15.9160    12.6260     9.4980 h1         1 7X1       0.037700
     50 H272        14.1730    12.8400     9.6640 h1         1 7X1       0.037700
     51 H291        16.8360    15.1580    10.9630 h1         1 7X1       0.028450
     52 H292        17.3850    14.7270     9.3370 h1         1 7X1       0.028450
     53 H331        15.6170    14.2950     7.5170 h1         1 7X1       0.028450
     54 H332        13.9080    14.4160     7.9580 h1         1 7X1       0.028450
     55 H301        15.9510    17.3120    10.1890 hc         1 7X1       0.045700
     56 H302        17.6450    17.1590     9.7310 hc         1 7X1       0.045700
     57 H311        16.2140    18.0690     7.8410 hc         1 7X1       0.038200
     58 H312        17.0320    16.5690     7.4020 hc         1 7X1       0.038200
     59 H321        14.0980    16.8530     8.2980 hc         1 7X1       0.045700
     60 H322        14.6620    16.4250     6.6850 hc         1 7X1       0.045700
@<TRIPOS>BOND
     1     1     2 1   
     2     1    34 1   
     3     1    35 1   
     4     1    36 1   
     5     2     3 1   
     6     3     4 ar  
     7     3    23 ar  
     8     4     5 ar  
     9     4    37 1   
    10     5     6 ar  
    11     5    21 ar  
    12     6     7 1   
    13     6    18 ar  
    14     7     8 1   
    15     7    38 1   
    16     8     9 ar  
    17     8    16 ar  
    18     9    10 1   
    19     9    13 ar  
    20    10    11 1   
    21    11    12 1   
    22    11    39 1   
    23    11    40 1   
    24    12    13 1   
    25    13    14 ar  
    26    14    15 ar  
    27    14    41 1   
    28    15    16 ar  
    29    15    42 1   
    30    16    17 1   
    31    18    19 ar  
    32    19    20 ar  
    33    19    43 1   
    34    20    21 ar  
    35    21    22 ar  
    36    22    23 ar  
    37    22    44 1   
    38    23    24 1   
    39    24    25 1   
    40    25    26 1   
    41    25    45 1   
    42    25    46 1   
    43    26    27 1   
    44    26    47 1   
    45    26    48 1   
    46    27    28 1   
    47    27    49 1   
    48    27    50 1   
    49    28    29 1   
    50    28    33 1   
    51    29    30 1   
    52    29    51 1   
    53    29    52 1   
    54    30    31 1   
    55    30    55 1   
    56    30    56 1   
    57    31    32 1   
    58    31    57 1   
    59    31    58 1   
    60    32    33 1   
    61    32    59 1   
    62    32    60 1   
    63    33    53 1   
    64    33    54 1   
@<TRIPOS>SUBSTRUCTURE
     1 7X1         1 TEMP              0 ****  ****    0 ROOT
