@<TRIPOS>MOLECULE
7X2
   49    52     1     0     0
SMALL
No Charge or Current Charge


@<TRIPOS>ATOM
      1 C1          16.2230    11.1330     9.6940 c3         1 7X2       0.146400
      2 O2          14.8010    11.2830     9.5380 os         1 7X2      -0.324100
      3 C3          13.8870    10.4210    10.1230 ca         1 7X2       0.184600
      4 C4          14.3090     9.3350    10.9160 ca         1 7X2      -0.277000
      5 C5          13.3740     8.4740    11.4850 ca         1 7X2       0.392000
      6 N6          13.8420     7.4250    12.2680 nu         1 7X2      -0.929900
      7 C7          13.3760     6.1570    12.5740 ca         1 7X2       0.422900
      8 N8          14.0850     5.5120    13.5150 nb         1 7X2      -0.273000
      9 C9          13.6770     4.2680    13.8270 ca         1 7X2       0.170900
     10 C10         12.5680     3.6880    13.1970 ca         1 7X2      -0.318000
     11 C11         11.8960     4.4580    12.2440 ca         1 7X2       0.430900
     12 N12         10.8150     3.9860    11.5260 nu         1 7X2      -0.944900
     13 C13          9.9050     2.9230    11.7180 ca         1 7X2       0.298000
     14 C14          9.4600     2.5160    13.0000 ca         1 7X2       0.047100
     15 O15          9.7790     3.0870    14.1990 os         1 7X2      -0.325100
     16 C16          9.1320     2.1970    15.1710 c5         1 7X2       0.369600
     17 O17          8.2290     1.2850    14.4580 os         1 7X2      -0.338100
     18 C18          8.5580     1.4960    13.1580 ca         1 7X2       0.066100
     19 C19          8.0210     0.8020    12.0680 ca         1 7X2      -0.093000
     20 C20          8.4290     1.1840    10.7750 ca         1 7X2      -0.091000
     21 C21          9.3550     2.2380    10.5990 ca         1 7X2       0.096000
     22 Cl1          9.8160     2.6860     8.9520 cl         1 7X2      -0.178000
     23 N23         12.3070     5.6860    11.9100 nb         1 7X2      -0.310000
     24 C24         12.0090     8.7040    11.2970 ca         1 7X2      -0.277000
     25 C25         11.5550     9.7820    10.5070 ca         1 7X2       0.184600
     26 O26         10.1960     9.9870    10.3290 os         1 7X2      -0.324100
     27 C27          9.1880     9.1290    10.8920 c3         1 7X2       0.146400
     28 C28         12.5090    10.6570     9.9040 ca         1 7X2      -0.007900
     29 O29         12.1880    11.7540     9.1020 os         1 7X2      -0.324100
     30 C30         10.8530    12.1600     8.7480 c3         1 7X2       0.146900
     31 H1C1        16.5600    10.1660     9.3010 h1         1 7X2       0.041200
     32 H1C2        16.7500    11.9240     9.1470 h1         1 7X2       0.041200
     33 H1C3        16.5090    11.2050    10.7520 h1         1 7X2       0.041200
     34 H4          15.3620     9.1440    11.0870 ha         1 7X2       0.137000
     35 H6          14.7770     7.5850    12.6360 hn         1 7X2       0.511000
     36 H24         11.3050     8.0460    11.7890 ha         1 7X2       0.137000
     37 H9          14.2510     3.7310    14.5810 h4         1 7X2       0.019100
     38 H10         12.2600     2.6760    13.4350 ha         1 7X2       0.138000
     39 H12         10.7140     4.4570    10.6280 hn         1 7X2       0.519000
     40 H161         9.9050     1.6060    15.6780 h2         1 7X2       0.071700
     41 H162         8.5690     2.7870    15.9030 h2         1 7X2       0.071700
     42 H19          7.3000     0.0020    12.2180 ha         1 7X2       0.143000
     43 H20          8.0240     0.6710     9.9060 ha         1 7X2       0.140000
     44 H271         9.3020     8.1000    10.5280 h1         1 7X2       0.041200
     45 H272         9.2450     9.1260    11.9880 h1         1 7X2       0.041200
     46 H273         8.1890     9.4810    10.6070 h1         1 7X2       0.041200
     47 H301        10.2730    12.4210     9.6420 h1         1 7X2       0.031033
     48 H302        10.8890    13.0460     8.1020 h1         1 7X2       0.031033
     49 H303        10.3350    11.3650     8.1980 h1         1 7X2       0.031033
@<TRIPOS>BOND
     1     1     2 1   
     2     1    31 1   
     3     1    32 1   
     4     1    33 1   
     5     2     3 1   
     6     3     4 ar  
     7     3    28 ar  
     8     4     5 ar  
     9     4    34 1   
    10     5     6 1   
    11     5    24 ar  
    12     6     7 1   
    13     6    35 1   
    14     7     8 ar  
    15     7    23 ar  
    16     8     9 ar  
    17     9    10 ar  
    18     9    37 1   
    19    10    11 ar  
    20    10    38 1   
    21    11    12 1   
    22    11    23 ar  
    23    12    13 1   
    24    12    39 1   
    25    13    14 ar  
    26    13    21 ar  
    27    14    15 1   
    28    14    18 ar  
    29    15    16 1   
    30    16    17 1   
    31    16    40 1   
    32    16    41 1   
    33    17    18 1   
    34    18    19 ar  
    35    19    20 ar  
    36    19    42 1   
    37    20    21 ar  
    38    20    43 1   
    39    21    22 1   
    40    24    25 ar  
    41    24    36 1   
    42    25    26 1   
    43    25    28 ar  
    44    26    27 1   
    45    27    44 1   
    46    27    45 1   
    47    27    46 1   
    48    28    29 1   
    49    29    30 1   
    50    30    47 1   
    51    30    48 1   
    52    30    49 1   
@<TRIPOS>SUBSTRUCTURE
     1 7X2         1 TEMP              0 ****  ****    0 ROOT
