@<TRIPOS>MOLECULE
7X2
   49    52     1     0     0
SMALL
bcc


@<TRIPOS>ATOM
      1 C1          15.8010    11.6360    10.6190 c3         1 7X2       0.123200
      2 O2          14.5000    11.6090    10.0650 os         1 7X2      -0.300900
      3 C3          13.7540    10.5050    10.2350 ca         1 7X2       0.184600
      4 C4          14.1750     9.3810    10.9350 ca         1 7X2      -0.295000
      5 C5          13.3270     8.2770    11.0630 ca         1 7X2       0.253600
      6 N6          13.8410     7.2020    11.7780 nu         1 7X2      -0.736300
      7 C7          13.3160     5.9910    12.1170 ca         1 7X2       0.948900
      8 N8          14.1520     5.2140    12.8140 nb         1 7X2      -0.799000
      9 C9          13.6760     4.0220    13.1480 ca         1 7X2       0.499200
     10 C10         12.4110     3.5780    12.8300 ca         1 7X2      -0.466600
     11 C11         11.6180     4.4830    12.1120 ca         1 7X2       0.759200
     12 N12         10.3480     4.2140    11.7180 nu         1 7X2      -0.751300
     13 C13          9.6420     3.0470    12.0130 ca         1 7X2       0.159600
     14 C14          9.3190     2.6970    13.3060 ca         1 7X2       0.047100
     15 O15          9.6020     3.3690    14.4380 os         1 7X2      -0.301900
     16 C16          9.2260     2.5070    15.5100 c5         1 7X2       0.323200
     17 O17          8.4250     1.4770    14.9450 os         1 7X2      -0.314900
     18 C18          8.6040     1.5480    13.6060 ca         1 7X2       0.066100
     19 C19          8.1430     0.7030    12.6290 ca         1 7X2      -0.111000
     20 C20          8.4390     1.0430    11.3040 ca         1 7X2      -0.109000
     21 C21          9.1740     2.1760    11.0120 ca         1 7X2       0.004400
     22 CL1          9.5410     2.5570     9.3660 cl         1 7X2      -0.086400
     23 N23         12.0800     5.6800    11.7570 nb         1 7X2      -0.836000
     24 C24         12.0580     8.2990    10.4880 ca         1 7X2      -0.295000
     25 C25         11.6470     9.4330     9.7890 ca         1 7X2       0.184600
     26 O26         10.4400     9.5450     9.2070 os         1 7X2      -0.300900
     27 C27          9.5370     8.4620     9.2990 c3         1 7X2       0.123200
     28 C28         12.4860    10.5370     9.6460 ca         1 7X2      -0.007900
     29 O29         12.0900    11.6270     8.9320 os         1 7X2      -0.300900
     30 C30         11.4020    12.6060     9.6970 c3         1 7X2       0.123700
     31 H1C1        16.4390    10.8540    10.2010 h1         1 7X2       0.041200
     32 H1C2        16.2230    12.6050    10.3630 h1         1 7X2       0.041200
     33 H1C3        15.7850    11.5370    11.7070 h1         1 7X2       0.041200
     34 H4          15.1560     9.3470    11.3890 ha         1 7X2       0.155000
     35 H6          14.7810     7.3250    12.1210 hn         1 7X2       0.455800
     36 H24         11.4120     7.4450    10.5910 ha         1 7X2       0.155000
     37 H9          14.3470     3.3760    13.7030 h4         1 7X2       0.019100
     38 H10         12.0800     2.5890    13.1070 ha         1 7X2       0.156000
     39 H12          9.9250     4.8850    11.0940 hn         1 7X2       0.463800
     40 H161        10.1220     2.0760    15.9680 h2         1 7X2       0.071700
     41 H162         8.6480     3.0670    16.2440 h2         1 7X2       0.071700
     42 H19          7.5730    -0.1850    12.8590 ha         1 7X2       0.161000
     43 H20          8.0990     0.4030    10.5020 ha         1 7X2       0.158000
     44 H271         9.9250     7.5630     8.8130 h1         1 7X2       0.041200
     45 H272         9.2860     8.2230    10.3360 h1         1 7X2       0.041200
     46 H273         8.6310     8.7730     8.7850 h1         1 7X2       0.041200
     47 H301        12.0050    12.9650    10.5350 h1         1 7X2       0.031033
     48 H302        11.1940    13.4460     9.0350 h1         1 7X2       0.031033
     49 H303        10.4540    12.2250    10.0860 h1         1 7X2       0.031033
@<TRIPOS>BOND
     1     1     2 1   
     2     1    31 1   
     3     1    32 1   
     4     1    33 1   
     5     2     3 1   
     6     3     4 ar  
     7     3    28 ar  
     8     4     5 ar  
     9     4    34 1   
    10     5     6 1   
    11     5    24 ar  
    12     6     7 1   
    13     6    35 1   
    14     7     8 ar  
    15     7    23 ar  
    16     8     9 ar  
    17     9    10 ar  
    18     9    37 1   
    19    10    11 ar  
    20    10    38 1   
    21    11    12 1   
    22    11    23 ar  
    23    12    13 1   
    24    12    39 1   
    25    13    14 ar  
    26    13    21 ar  
    27    14    15 1   
    28    14    18 ar  
    29    15    16 1   
    30    16    17 1   
    31    16    40 1   
    32    16    41 1   
    33    17    18 1   
    34    18    19 ar  
    35    19    20 ar  
    36    19    42 1   
    37    20    21 ar  
    38    20    43 1   
    39    21    22 1   
    40    24    25 ar  
    41    24    36 1   
    42    25    26 1   
    43    25    28 ar  
    44    26    27 1   
    45    27    44 1   
    46    27    45 1   
    47    27    46 1   
    48    28    29 1   
    49    29    30 1   
    50    30    47 1   
    51    30    48 1   
    52    30    49 1   
@<TRIPOS>SUBSTRUCTURE
     1 7X2         1 TEMP              0 ****  ****    0 ROOT
