@<TRIPOS>MOLECULE
7X3
   49    51     1     0     0
SMALL
bcc


@<TRIPOS>ATOM
      1 C1           4.4100     7.4310    10.1600 c3         1 7X3       0.123700
      2 O2           5.6840     7.9040    10.5760 os         1 7X3      -0.300900
      3 C3           6.6140     7.0000    10.9180 ca         1 7X3       0.128100
      4 C4           6.4340     5.6210    10.9010 ca         1 7X3      -0.185000
      5 C5           7.4630     4.7710    11.2660 ca         1 7X3      -0.138000
      6 C6           8.6980     5.2590    11.6730 ca         1 7X3       0.135600
      7 N7           9.6550     4.3270    12.0830 nu         1 7X3      -0.726300
      8 C8          10.9960     4.4420    12.1480 ca         1 7X3       0.956900
      9 N9          11.6480     3.3530    12.5910 nb         1 7X3      -0.835000
     10 C10         12.9570     3.5040    12.6640 ca         1 7X3       0.735900
     11 N11         13.6510     4.5810    12.3450 nb         1 7X3      -0.833000
     12 C12         12.9010     5.6040    11.9010 ca         1 7X3       0.958900
     13 N13         13.5810     6.7180    11.5630 nu         1 7X3      -0.732300
     14 C14         13.0850     7.9340    11.0710 ca         1 7X3       0.228600
     15 C15         12.0280     7.9980    10.1670 ca         1 7X3      -0.273000
     16 C16         11.6290     9.2420     9.6840 ca         1 7X3       0.180100
     17 O17         10.6330     9.4190     8.8000 os         1 7X3      -0.297400
     18 C18          9.9810     8.2800     8.2720 c3         1 7X3       0.121700
     19 C19         12.2870    10.4070    10.0860 ca         1 7X3       0.006100
     20 O20         11.9060    11.6180     9.5950 os         1 7X3      -0.301900
     21 C21         10.8990    12.2590    10.3680 c3         1 7X3       0.122700
     22 C22         13.3560    10.3210    10.9830 ca         1 7X3       0.180100
     23 O23         13.9300    11.4870    11.3160 os         1 7X3      -0.297400
     24 C24         15.0240    11.4600    12.2200 c3         1 7X3       0.121700
     25 C25         13.7600     9.0830    11.4740 ca         1 7X3      -0.273000
     26 N26         11.5790     5.5780    11.7880 nb         1 7X3      -0.853000
     27 C27          8.8890     6.6430    11.6920 ca         1 7X3      -0.101000
     28 C28          7.8550     7.4800    11.3090 ca         1 7X3       0.000400
     29 CL1          8.1140     9.1930    11.3360 cl         1 7X3      -0.085400
     30 H1C1         3.9180     6.8560    10.9480 h1         1 7X3       0.044033
     31 H1C2         3.8170     8.3150     9.9380 h1         1 7X3       0.044033
     32 H1C3         4.4830     6.8140     9.2610 h1         1 7X3       0.044033
     33 H4           5.4880     5.1940    10.5960 ha         1 7X3       0.141000
     34 H5           7.2990     3.6990    11.2510 ha         1 7X3       0.134000
     35 H7           9.2940     3.4080    12.3140 hn         1 7X3       0.462800
     36 H27          9.8320     7.0690    11.9970 ha         1 7X3       0.185000
     37 H10         13.5250     2.6480    13.0180 h5         1 7X3       0.051100
     38 H13         14.5580     6.7180    11.8310 hn         1 7X3       0.462800
     39 H15         11.5380     7.0930     9.8440 ha         1 7X3       0.151000
     40 H25         14.5850     8.9880    12.1680 ha         1 7X3       0.151000
     41 H181         9.2160     8.6510     7.5940 h1         1 7X3       0.043700
     42 H182        10.6710     7.6380     7.7190 h1         1 7X3       0.043700
     43 H183         9.5000     7.6850     9.0510 h1         1 7X3       0.043700
     44 H211        11.2440    12.4570    11.3870 h1         1 7X3       0.033367
     45 H212        10.6710    13.2070     9.8820 h1         1 7X3       0.033367
     46 H213         9.9860    11.6590    10.4140 h1         1 7X3       0.033367
     47 H241        15.8560    10.8680    11.8320 h1         1 7X3       0.043700
     48 H242        15.3450    12.4930    12.3380 h1         1 7X3       0.043700
     49 H243        14.7300    11.0620    13.1950 h1         1 7X3       0.043700
@<TRIPOS>BOND
     1     1     2 1   
     2     1    30 1   
     3     1    31 1   
     4     1    32 1   
     5     2     3 1   
     6     3     4 ar  
     7     3    28 ar  
     8     4     5 ar  
     9     4    33 1   
    10     5     6 ar  
    11     5    34 1   
    12     6     7 1   
    13     6    27 ar  
    14     7     8 1   
    15     7    35 1   
    16     8     9 ar  
    17     8    26 ar  
    18     9    10 ar  
    19    10    11 ar  
    20    10    37 1   
    21    11    12 ar  
    22    12    13 1   
    23    12    26 ar  
    24    13    14 1   
    25    13    38 1   
    26    14    15 ar  
    27    14    25 ar  
    28    15    16 ar  
    29    15    39 1   
    30    16    17 1   
    31    16    19 ar  
    32    17    18 1   
    33    18    41 1   
    34    18    42 1   
    35    18    43 1   
    36    19    20 1   
    37    19    22 ar  
    38    20    21 1   
    39    21    44 1   
    40    21    45 1   
    41    21    46 1   
    42    22    23 1   
    43    22    25 ar  
    44    23    24 1   
    45    24    47 1   
    46    24    48 1   
    47    24    49 1   
    48    25    40 1   
    49    27    28 ar  
    50    27    36 1   
    51    28    29 1   
@<TRIPOS>SUBSTRUCTURE
     1 7X3         1 TEMP              0 ****  ****    0 ROOT
