@<TRIPOS>MOLECULE
7X3
   49    51     1     0     0
SMALL
No Charge or Current Charge


@<TRIPOS>ATOM
      1 C1           4.1820     7.3180    10.2650 c3         1 7X3       0.146900
      2 O2           5.4340     7.7580    10.8210 os         1 7X3      -0.324100
      3 C3           6.4600     6.8810    11.1250 ca         1 7X3       0.128100
      4 C4           6.3450     5.4880    10.9160 ca         1 7X3      -0.167000
      5 C5           7.4200     4.6370    11.2350 ca         1 7X3      -0.120000
      6 C6           8.6200     5.1520    11.7560 ca         1 7X3       0.274000
      7 N7           9.6630     4.2580    12.0450 nu         1 7X3      -0.919900
      8 C8          11.0430     4.3690    12.0930 ca         1 7X3       0.430900
      9 N9          11.7070     3.2560    12.4400 nb         1 7X3      -0.309000
     10 C10         13.0500     3.3880    12.4610 ca         1 7X3       0.209900
     11 N11         13.7240     4.5200    12.1640 nb         1 7X3      -0.307000
     12 C12         12.9450     5.5590    11.8270 ca         1 7X3       0.432900
     13 N13         13.6060     6.7400    11.5380 nu         1 7X3      -0.925900
     14 C14         13.1870     8.0040    11.1330 ca         1 7X3       0.367000
     15 C15         12.0810     8.1820    10.2950 ca         1 7X3      -0.255000
     16 C16         11.6590     9.4720     9.9100 ca         1 7X3       0.180100
     17 O17         10.5540     9.6230     9.0870 os         1 7X3      -0.320600
     18 C18          9.7820     8.5150     8.5890 c3         1 7X3       0.144900
     19 C19         12.3850    10.6120    10.3720 ca         1 7X3       0.006100
     20 O20         12.0640    11.9360    10.0680 os         1 7X3      -0.325100
     21 C21         10.9230    12.3560     9.2980 c3         1 7X3       0.145900
     22 C22         13.5200    10.4120    11.1950 ca         1 7X3       0.180100
     23 O23         14.2200    11.5280    11.6260 os         1 7X3      -0.320600
     24 C24         15.3840    11.4400    12.4660 c3         1 7X3       0.144900
     25 C25         13.9150     9.1120    11.5660 ca         1 7X3      -0.255000
     26 N26         11.6070     5.5420    11.7770 nb         1 7X3      -0.327000
     27 C27          8.7230     6.5380    11.9840 ca         1 7X3      -0.083000
     28 C28          7.6570     7.3960    11.6660 ca         1 7X3       0.092000
     29 Cl1          7.8470     9.1270    11.9510 cl         1 7X3      -0.177000
     30 H1C1         3.6770     6.6210    10.9460 h1         1 7X3       0.044033
     31 H1C2         3.5180     8.1750    10.1010 h1         1 7X3       0.044033
     32 H1C3         4.3380     6.8190     9.3000 h1         1 7X3       0.044033
     33 H4           5.4390     5.0500    10.5070 ha         1 7X3       0.123000
     34 H5           7.3200     3.5680    11.0620 ha         1 7X3       0.116000
     35 H7           9.3640     3.2870    12.1260 hn         1 7X3       0.518000
     36 H27          9.6190     6.9630    12.4190 ha         1 7X3       0.167000
     37 H10         13.6360     2.5130    12.7390 h5         1 7X3       0.051100
     38 H13         14.5860     6.7030    11.8110 hn         1 7X3       0.518000
     39 H15         11.5630     7.3030     9.9340 ha         1 7X3       0.133000
     40 H25         14.7750     8.9490    12.2050 ha         1 7X3       0.133000
     41 H181         8.9490     8.8800     7.9750 h1         1 7X3       0.043700
     42 H182        10.4000     7.8570     7.9660 h1         1 7X3       0.043700
     43 H183         9.3610     7.9290     9.4150 h1         1 7X3       0.043700
     44 H211         9.9900    12.0190     9.7660 h1         1 7X3       0.033367
     45 H212        10.8930    13.4510     9.2380 h1         1 7X3       0.033367
     46 H213        10.9760    11.9670     8.2730 h1         1 7X3       0.033367
     47 H241        16.1790    10.8650    11.9740 h1         1 7X3       0.043700
     48 H242        15.7740    12.4430    12.6800 h1         1 7X3       0.043700
     49 H243        15.1400    10.9600    13.4230 h1         1 7X3       0.043700
@<TRIPOS>BOND
     1     1     2 1   
     2     1    30 1   
     3     1    31 1   
     4     1    32 1   
     5     2     3 1   
     6     3     4 ar  
     7     3    28 ar  
     8     4     5 ar  
     9     4    33 1   
    10     5     6 ar  
    11     5    34 1   
    12     6     7 1   
    13     6    27 ar  
    14     7     8 1   
    15     7    35 1   
    16     8     9 ar  
    17     8    26 ar  
    18     9    10 ar  
    19    10    11 ar  
    20    10    37 1   
    21    11    12 ar  
    22    12    13 1   
    23    12    26 ar  
    24    13    14 1   
    25    13    38 1   
    26    14    15 ar  
    27    14    25 ar  
    28    15    16 ar  
    29    15    39 1   
    30    16    17 1   
    31    16    19 ar  
    32    17    18 1   
    33    18    41 1   
    34    18    42 1   
    35    18    43 1   
    36    19    20 1   
    37    19    22 ar  
    38    20    21 1   
    39    21    44 1   
    40    21    45 1   
    41    21    46 1   
    42    22    23 1   
    43    22    25 ar  
    44    23    24 1   
    45    24    47 1   
    46    24    48 1   
    47    24    49 1   
    48    25    40 1   
    49    27    28 ar  
    50    27    36 1   
    51    28    29 1   
@<TRIPOS>SUBSTRUCTURE
     1 7X3         1 TEMP              0 ****  ****    0 ROOT
