@<TRIPOS>MOLECULE
7X4
   42    45     1     0     0
SMALL
No Charge or Current Charge


@<TRIPOS>ATOM
      1 C11         13.2050     6.4010    12.5420 ca         1 7X4       0.420900
      2 N12         14.0760     5.5470    13.1030 nb         1 7X4      -0.269000
      3 C13         13.6480     4.2830    13.2800 ca         1 7X4       0.170900
      4 C14         12.3600     3.8920    12.8920 ca         1 7X4      -0.315000
      5 C15         11.5360     4.8690    12.3270 ca         1 7X4       0.431900
      6 N16         10.2620     4.5990    11.8670 nu         1 7X4      -0.942900
      7 C17          9.3400     3.5560    12.1000 ca         1 7X4       0.299000
      8 C18          9.2150     2.9100    13.3550 ca         1 7X4       0.045100
      9 O19          9.8920     3.2100    14.5030 os         1 7X4      -0.325100
     10 C20          9.4450     2.1650    15.4320 c5         1 7X4       0.369600
     11 O21          8.3040     1.4530    14.8400 os         1 7X4      -0.337100
     12 C22          8.2960     1.9150    13.5630 ca         1 7X4       0.067100
     13 C23          7.4280     1.4810    12.5560 ca         1 7X4      -0.093000
     14 C24          7.5130     2.1050    11.2960 ca         1 7X4      -0.090000
     15 C25          8.4530     3.1370    11.0700 ca         1 7X4       0.095000
     16 Cl2          8.5020     3.8960     9.4740 cl         1 7X4      -0.178000
     17 N27         11.9590     6.1220    12.1260 nb         1 7X4      -0.314000
     18 N1          14.4830    11.9010     8.5090 n8         1 7X4      -1.002100
     19 O3          15.9540    12.0500    10.4390 o          1 7X4      -0.543500
     20 O4          13.9740    13.6400    10.1310 o          1 7X4      -0.543500
     21 C5          13.4700    11.0970    10.8720 ca         1 7X4      -0.234500
     22 C6          12.1010    11.3850    11.0500 ca         1 7X4      -0.055000
     23 C7          11.2620    10.4420    11.6660 ca         1 7X4      -0.104000
     24 C8          11.7790     9.2070    12.0970 ca         1 7X4      -0.089000
     25 C9          13.1420     8.8960    11.9100 ca         1 7X4       0.310000
     26 N10         13.6990     7.6810    12.3390 nu         1 7X4      -0.932900
     27 C28         13.9810     9.8530    11.3070 ca         1 7X4      -0.072000
     28 H10         14.7100     7.7170    12.4720 hn         1 7X4       0.516000
     29 H13         14.3490     3.5790    13.7250 h4         1 7X4       0.021100
     30 H14         12.0300     2.8660    13.0140 ha         1 7X4       0.138000
     31 H16          9.9700     5.2510    11.1380 hn         1 7X4       0.522000
     32 H201        10.2650     1.4540    15.5860 h2         1 7X4       0.071700
     33 H202         9.1520     2.6130    16.3890 h2         1 7X4       0.071700
     34 H23          6.7010     0.6950    12.7480 ha         1 7X4       0.144000
     35 H24          6.8460     1.7970    10.4930 ha         1 7X4       0.140000
     36 H1N1        14.2370    12.8010     8.1030 hn         1 7X4       0.472000
     37 H1N2        15.4740    11.8310     8.2900 hn         1 7X4       0.472000
     38 H6          11.6870    12.3360    10.7190 ha         1 7X4       0.141000
     39 H28         15.0340     9.6220    11.1670 ha         1 7X4       0.133000
     40 H7          10.2080    10.6700    11.8140 ha         1 7X4       0.118000
     41 H8          11.1180     8.5050    12.5930 ha         1 7X4       0.150000
     42 S2          14.5580    12.3020    10.0900 sy         1 7X4       1.121600
@<TRIPOS>BOND
     1     1     2 ar  
     2     1    17 ar  
     3     1    26 1   
     4     2     3 ar  
     5     3     4 ar  
     6     3    29 1   
     7     4     5 ar  
     8     4    30 1   
     9     5     6 1   
    10     5    17 ar  
    11     6     7 1   
    12     6    31 1   
    13     7     8 ar  
    14     7    15 ar  
    15     8     9 1   
    16     8    12 ar  
    17     9    10 1   
    18    10    11 1   
    19    10    32 1   
    20    10    33 1   
    21    11    12 1   
    22    12    13 ar  
    23    13    14 ar  
    24    13    34 1   
    25    14    15 ar  
    26    14    35 1   
    27    15    16 1   
    28    18    36 1   
    29    18    37 1   
    30    18    42 1   
    31    19    42 2   
    32    20    42 2   
    33    21    22 ar  
    34    21    27 ar  
    35    21    42 1   
    36    22    23 ar  
    37    22    38 1   
    38    23    24 ar  
    39    23    40 1   
    40    24    25 ar  
    41    24    41 1   
    42    25    26 1   
    43    25    27 ar  
    44    26    28 1   
    45    27    39 1   
@<TRIPOS>SUBSTRUCTURE
     1 7X4         1 TEMP              0 ****  ****    0 ROOT
