@<TRIPOS>MOLECULE
7X4
   42    45     1     0     0
SMALL
bcc


@<TRIPOS>ATOM
      1 C11         13.0580     6.3660    12.1180 ca         1 7X4       0.946900
      2 N12         13.9560     5.4270    12.4200 nb         1 7X4      -0.795000
      3 C13         13.4610     4.2120    12.6200 ca         1 7X4       0.499200
      4 C14         12.1210     3.9020    12.5410 ca         1 7X4      -0.463600
      5 C15         11.2710     4.9720    12.2340 ca         1 7X4       0.760200
      6 N16          9.9250     4.8510    12.1190 nu         1 7X4      -0.749300
      7 C17          9.2000     3.6800    12.3380 ca         1 7X4       0.160600
      8 C18          9.1720     3.0570    13.5660 ca         1 7X4       0.045100
      9 O19          9.7920     3.4410    14.7000 os         1 7X4      -0.301900
     10 C20          9.6180     2.3680    15.6220 c5         1 7X4       0.323200
     11 O21          8.6020     1.5300    15.0880 os         1 7X4      -0.313900
     12 C22          8.4470     1.8990    13.7960 ca         1 7X4       0.067100
     13 C23          7.6770     1.3190    12.8190 ca         1 7X4      -0.111000
     14 C24          7.6670     1.9420    11.5670 ca         1 7X4      -0.108000
     15 C25          8.4140     3.0810    11.3350 ca         1 7X4       0.003400
     16 CL2          8.3990     3.8100     9.7670 cl         1 7X4      -0.086400
     17 N27         11.7500     6.1970    12.0200 nb         1 7X4      -0.840000
     18 N1          15.3340    11.9120     9.2920 n8         1 7X4      -0.891700
     19 O3          15.6220    12.3810    11.7120 o          1 7X4      -0.614300
     20 O4          13.8440    13.6550    10.5050 o          1 7X4      -0.614300
     21 C5          13.4320    11.1080    10.9390 ca         1 7X4      -0.234500
     22 C6          12.0790    11.3510    10.7720 ca         1 7X4      -0.073000
     23 C7          11.2070    10.2960    10.9950 ca         1 7X4      -0.122000
     24 C8          11.6620     9.0410    11.3680 ca         1 7X4      -0.107000
     25 C9          13.0330     8.8090    11.5310 ca         1 7X4       0.171600
     26 N10         13.6010     7.6010    11.8990 nu         1 7X4      -0.739300
     27 C28         13.9180     9.8690    11.3150 ca         1 7X4      -0.090000
     28 H10         14.6060     7.6050    11.9930 hn         1 7X4       0.460800
     29 H13         14.1790     3.4340    12.8550 h4         1 7X4       0.021100
     30 H14         11.7730     2.8920    12.6920 ha         1 7X4       0.156000
     31 H16          9.4350     5.6600    11.7650 hn         1 7X4       0.466800
     32 H201        10.5530     1.8070    15.7160 h2         1 7X4       0.071700
     33 H202         9.3050     2.7620    16.5870 h2         1 7X4       0.071700
     34 H23          7.0980     0.4250    12.9980 ha         1 7X4       0.162000
     35 H24          7.0740     1.5190    10.7680 ha         1 7X4       0.158000
     36 H1N1        14.7370    12.0040     8.4760 hn         1 7X4       0.416800
     37 H1N2        16.2120    12.3990     9.1390 hn         1 7X4       0.416800
     38 H6          11.7090    12.3220    10.4770 ha         1 7X4       0.159000
     39 H28         14.9830     9.7100    11.4370 ha         1 7X4       0.151000
     40 H7          10.1430    10.4500    10.8760 ha         1 7X4       0.136000
     41 H8          10.9560     8.2450    11.5310 ha         1 7X4       0.168000
     42 S2          14.5960    12.4200    10.6800 sy         1 7X4       1.263200
@<TRIPOS>BOND
     1     1     2 ar  
     2     1    17 ar  
     3     1    26 1   
     4     2     3 ar  
     5     3     4 ar  
     6     3    29 1   
     7     4     5 ar  
     8     4    30 1   
     9     5     6 1   
    10     5    17 ar  
    11     6     7 1   
    12     6    31 1   
    13     7     8 ar  
    14     7    15 ar  
    15     8     9 1   
    16     8    12 ar  
    17     9    10 1   
    18    10    11 1   
    19    10    32 1   
    20    10    33 1   
    21    11    12 1   
    22    12    13 ar  
    23    13    14 ar  
    24    13    34 1   
    25    14    15 ar  
    26    14    35 1   
    27    15    16 1   
    28    18    36 1   
    29    18    37 1   
    30    18    42 1   
    31    19    42 2   
    32    20    42 2   
    33    21    22 ar  
    34    21    27 ar  
    35    21    42 1   
    36    22    23 ar  
    37    22    38 1   
    38    23    24 ar  
    39    23    40 1   
    40    24    25 ar  
    41    24    41 1   
    42    25    26 1   
    43    25    27 ar  
    44    26    28 1   
    45    27    39 1   
@<TRIPOS>SUBSTRUCTURE
     1 7X4         1 TEMP              0 ****  ****    0 ROOT
