@<TRIPOS>MOLECULE
7X5
   43    46     1     0     0
SMALL
bcc


@<TRIPOS>ATOM
      1 N1          13.6040     7.5620    11.6620 nu         1 7X5      -0.739300
      2 C7          13.1070     6.3420    12.0260 ca         1 7X5       0.944900
      3 N2          14.0050     5.5360    12.5950 nb         1 7X5      -0.797000
      4 C8          13.5520     4.3350    12.9350 ca         1 7X5       0.498200
      5 C9          12.2550     3.9160    12.7420 ca         1 7X5      -0.461600
      6 C10         11.3990     4.8530    12.1500 ca         1 7X5       0.762200
      7 N3          10.0910     4.6130    11.8850 nu         1 7X5      -0.746300
      8 C11          9.4030     3.4430    12.2060 ca         1 7X5       0.159600
      9 C12          9.2220     3.0360    13.5100 ca         1 7X5       0.049100
     10 O3           9.6520     3.6490    14.6300 os         1 7X5      -0.300900
     11 C13          9.3770     2.7480    15.7000 c5         1 7X5       0.324200
     12 O4           8.4990     1.7560    15.1860 os         1 7X5      -0.314900
     13 C14          8.5240     1.8860    13.8390 ca         1 7X5       0.067100
     14 C15          7.9390     1.0950    12.8850 ca         1 7X5      -0.111000
     15 C16          8.0890     1.4910    11.5510 ca         1 7X5      -0.109000
     16 C17          8.8070     2.6260    11.2270 ca         1 7X5       0.005400
     17 CL1          8.9930     3.0750     9.5680 cl         1 7X5      -0.089400
     18 N4          11.8360     6.0600    11.7950 nb         1 7X5      -0.840000
     19 C1           9.1880     9.0320     8.3580 c3         1 7X5      -0.226300
     20 O1           9.0900    11.3890     9.5290 o          1 7X5      -0.594800
     21 O2           8.7260     9.3340    10.9310 o          1 7X5      -0.594800
     22 C2          11.1710     9.8900    10.1300 ca         1 7X5      -0.234500
     23 C3          11.9990    10.9110     9.6990 ca         1 7X5      -0.070000
     24 C4          13.3600    10.7820     9.9480 ca         1 7X5      -0.114000
     25 C5          13.8580     9.6670    10.5930 ca         1 7X5      -0.143000
     26 C6          13.0100     8.6330    11.0180 ca         1 7X5       0.173600
     27 C18         11.6400     8.7610    10.7880 ca         1 7X5      -0.076000
     28 H1          14.5910     7.6570    11.8480 hn         1 7X5       0.457800
     29 H8          14.2730     3.6620    13.3870 h4         1 7X5       0.021100
     30 H9          11.9440     2.9200    13.0180 ha         1 7X5       0.157000
     31 H3           9.6140     5.3130    11.3360 hn         1 7X5       0.469800
     32 H131        10.3090     2.2830    16.0380 h2         1 7X5       0.071200
     33 H132         8.8940     3.2840    16.5160 h2         1 7X5       0.071200
     34 H15          7.3820     0.2040    13.1390 ha         1 7X5       0.161000
     35 H16          7.6460     0.8940    10.7670 ha         1 7X5       0.158000
     36 H1C1         9.7580     9.4700     7.5430 h1         1 7X5       0.102033
     37 H1C2         9.5130     8.0100     8.5390 h1         1 7X5       0.102033
     38 H1C3         8.1240     9.0500     8.1240 h1         1 7X5       0.102033
     39 HA          11.6110    11.7820     9.1900 ha         1 7X5       0.159000
     40 H18         10.9640     7.9890    11.1200 ha         1 7X5       0.185000
     41 H4          14.0410    11.5610     9.6340 ha         1 7X5       0.138000
     42 H5          14.9230     9.5880    10.7730 ha         1 7X5       0.134000
     43 S1           9.4230     9.9990     9.8310 sy         1 7X5       1.086300
@<TRIPOS>BOND
     1     1     2 1   
     2     1    26 1   
     3     1    28 1   
     4     2     3 ar  
     5     2    18 ar  
     6     3     4 ar  
     7     4     5 ar  
     8     4    29 1   
     9     5     6 ar  
    10     5    30 1   
    11     6     7 1   
    12     6    18 ar  
    13     7     8 1   
    14     7    31 1   
    15     8     9 ar  
    16     8    16 ar  
    17     9    10 1   
    18     9    13 ar  
    19    10    11 1   
    20    11    12 1   
    21    11    32 1   
    22    11    33 1   
    23    12    13 1   
    24    13    14 ar  
    25    14    15 ar  
    26    14    34 1   
    27    15    16 ar  
    28    15    35 1   
    29    16    17 1   
    30    19    36 1   
    31    19    37 1   
    32    19    38 1   
    33    19    43 1   
    34    20    43 2   
    35    21    43 2   
    36    22    23 ar  
    37    22    27 ar  
    38    22    43 1   
    39    23    24 ar  
    40    23    39 1   
    41    24    25 ar  
    42    24    41 1   
    43    25    26 ar  
    44    25    42 1   
    45    26    27 ar  
    46    27    40 1   
@<TRIPOS>SUBSTRUCTURE
     1 7X5         1 TEMP              0 ****  ****    0 ROOT
