@<TRIPOS>MOLECULE
7X5
   43    46     1     0     0
SMALL
No Charge or Current Charge


@<TRIPOS>ATOM
      1 N1          13.6220     7.6540    11.7670 nu         1 7X5      -0.932900
      2 C7          13.1860     6.4120    12.2020 ca         1 7X5       0.418900
      3 N2          14.0160     5.7960    13.0590 nb         1 7X5      -0.271000
      4 C8          13.6380     4.5770    13.4880 ca         1 7X5       0.169900
      5 C9          12.4390     3.9940    13.0560 ca         1 7X5      -0.313000
      6 C10         11.6470     4.7360    12.1750 ca         1 7X5       0.433900
      7 N3          10.4640     4.2580    11.6480 nu         1 7X5      -0.939900
      8 C11          9.5730     3.2270    12.0210 ca         1 7X5       0.298000
      9 C12          9.3160     2.8880    13.3730 ca         1 7X5       0.049100
     10 O3           9.8200     3.5030    14.4830 os         1 7X5      -0.324100
     11 C13          9.3090     2.6730    15.5810 c5         1 7X5       0.370600
     12 O4           8.2930     1.7530    15.0520 os         1 7X5      -0.338100
     13 C14          8.4300     1.8980    13.7090 ca         1 7X5       0.067100
     14 C15          7.7250     1.1710    12.7450 ca         1 7X5      -0.093000
     15 C16          7.9430     1.4860    11.3890 ca         1 7X5      -0.091000
     16 C17          8.8510     2.5080    11.0290 ca         1 7X5       0.097000
     17 Cl1          9.0710     2.8730     9.3130 cl         1 7X5      -0.181000
     18 N4          12.0240     5.9380    11.7260 nb         1 7X5      -0.314000
     19 C1           8.8630     9.1550     8.6870 c3         1 7X5      -0.337100
     20 O1           9.0950    11.5950     9.6180 o          1 7X5      -0.524000
     21 O2           8.7350     9.6590    11.2540 o          1 7X5      -0.524000
     22 C2          11.1440     9.9550    10.1370 ca         1 7X5      -0.234500
     23 C3          12.0240    10.7940     9.4220 ca         1 7X5      -0.052000
     24 C4          13.4110    10.5860     9.5050 ca         1 7X5      -0.096000
     25 C5          13.9230     9.5390    10.2910 ca         1 7X5      -0.125000
     26 C6          13.0590     8.6800    10.9930 ca         1 7X5       0.312000
     27 C18         11.6680     8.9020    10.9210 ca         1 7X5      -0.058000
     28 H1          14.6010     7.8140    12.0060 hn         1 7X5       0.513000
     29 H8          14.3080     4.0620    14.1750 h4         1 7X5       0.021100
     30 H9          12.1520     3.0020    13.3850 ha         1 7X5       0.139000
     31 H3          10.2400     4.6890    10.7510 hn         1 7X5       0.525000
     32 H131        10.1370     2.0870    15.9970 h2         1 7X5       0.071200
     33 H132         8.8700     3.3090    16.3580 h2         1 7X5       0.071200
     34 H15          7.0200     0.3960    13.0370 ha         1 7X5       0.143000
     35 H16          7.4040     0.9450    10.6140 ha         1 7X5       0.140000
     36 H1C1         9.3910     9.4850     7.7860 h1         1 7X5       0.102033
     37 H1C2         9.1360     8.1250     8.9390 h1         1 7X5       0.102033
     38 H1C3         7.7800     9.2480     8.5580 h1         1 7X5       0.102033
     39 HA          11.6410    11.6080     8.8070 ha         1 7X5       0.141000
     40 H18         10.9940     8.2690    11.4890 ha         1 7X5       0.167000
     41 H4          14.0890    11.2370     8.9590 ha         1 7X5       0.120000
     42 H5          14.9980     9.3890    10.3430 ha         1 7X5       0.116000
     43 S1           9.3570    10.2140    10.0450 sy         1 7X5       1.055500
@<TRIPOS>BOND
     1     1     2 1   
     2     1    26 1   
     3     1    28 1   
     4     2     3 ar  
     5     2    18 ar  
     6     3     4 ar  
     7     4     5 ar  
     8     4    29 1   
     9     5     6 ar  
    10     5    30 1   
    11     6     7 1   
    12     6    18 ar  
    13     7     8 1   
    14     7    31 1   
    15     8     9 ar  
    16     8    16 ar  
    17     9    10 1   
    18     9    13 ar  
    19    10    11 1   
    20    11    12 1   
    21    11    32 1   
    22    11    33 1   
    23    12    13 1   
    24    13    14 ar  
    25    14    15 ar  
    26    14    34 1   
    27    15    16 ar  
    28    15    35 1   
    29    16    17 1   
    30    19    36 1   
    31    19    37 1   
    32    19    38 1   
    33    19    43 1   
    34    20    43 2   
    35    21    43 2   
    36    22    23 ar  
    37    22    27 ar  
    38    22    43 1   
    39    23    24 ar  
    40    23    39 1   
    41    24    25 ar  
    42    24    41 1   
    43    25    26 ar  
    44    25    42 1   
    45    26    27 ar  
    46    27    40 1   
@<TRIPOS>SUBSTRUCTURE
     1 7X5         1 TEMP              0 ****  ****    0 ROOT
