@<TRIPOS>MOLECULE
7X6
   45    48     1     0     0
SMALL
abcg2


@<TRIPOS>ATOM
      1 N2          13.6040     7.6230    11.8770 nu         1 7X6      -0.929900
      2 C7          13.0630     6.4000    12.1580 ca         1 7X6       0.415900
      3 N3          13.9460     5.4730    12.5380 nb         1 7X6      -0.271000
      4 C8          13.4360     4.2700    12.7700 ca         1 7X6       0.167900
      5 C9          12.0990     3.9540    12.6470 ca         1 7X6      -0.314000
      6 C10         11.2640     5.0150    12.2760 ca         1 7X6       0.433900
      7 N4           9.9190     4.9140    12.1220 nu         1 7X6      -0.939900
      8 C11          9.1670     3.7520    12.2860 ca         1 7X6       0.306000
      9 C12          9.0910     3.0880    13.4920 ca         1 7X6       0.044100
     10 O3           9.6820     3.4210    14.6560 os         1 7X6      -0.323100
     11 C13          9.4750     2.3110    15.5270 c5         1 7X6       0.369600
     12 O4           8.4480     1.5210    14.9410 os         1 7X6      -0.338100
     13 C14          8.3380     1.9370    13.6590 ca         1 7X6       0.068100
     14 C15          7.5850     1.4080    12.6420 ca         1 7X6      -0.096000
     15 C16          7.6210     2.0740    11.4120 ca         1 7X6      -0.089000
     16 C17          8.3970     3.2040    11.2420 ca         1 7X6       0.097000
     17 CL1          8.4430     3.9840     9.6980 cl         1 7X6      -0.190000
     18 N5          11.7580     6.2270    12.0390 nb         1 7X6      -0.310000
     19 C1           9.4420     7.8070     8.6780 c3         1 7X6      -0.379100
     20 S1           8.7440     8.9030     9.8880 s6         1 7X6       1.209100
     21 O1           8.6350     8.1730    11.1430 o          1 7X6      -0.530500
     22 O2           7.5540     9.5290     9.3380 o          1 7X6      -0.530500
     23 C2          11.1990     9.9920    10.3490 ca         1 7X6       0.317000
     24 C3          12.0700    10.9880     9.9180 ca         1 7X6      -0.186000
     25 C4          13.4240    10.8540    10.1870 ca         1 7X6      -0.049000
     26 C5          13.9210     9.7400    10.8380 ca         1 7X6      -0.194000
     27 C6          13.0450     8.7320    11.2560 ca         1 7X6       0.358000
     28 C18         11.6750     8.8830    11.0390 ca         1 7X6      -0.201000
     29 H2          14.6060     7.6480    11.9910 hn         1 7X6       0.512000
     30 H8          14.1410     3.5010    13.0670 h4         1 7X6       0.019100
     31 H9          11.7470     2.9500    12.8240 ha         1 7X6       0.138000
     32 H4           9.4590     5.7370    11.7550 hn         1 7X6       0.540000
     33 H131        10.3970     1.7270    15.6050 h2         1 7X6       0.070700
     34 H132         9.1570     2.6680    16.5050 h2         1 7X6       0.070700
     35 H15          6.9840     0.5190    12.7730 ha         1 7X6       0.142000
     36 H16          7.0430     1.6900    10.5840 ha         1 7X6       0.139000
     37 H1C1         8.7400     6.9840     8.5500 h1         1 7X6       0.106367
     38 H1C2         9.5650     8.3450     7.7410 h1         1 7X6       0.106367
     39 H1C3        10.3990     7.4220     9.0230 h1         1 7X6       0.106367
     40 H1           9.5910    10.9420     9.4980 hn         1 7X6       0.501000
     41 H3          11.6990    11.8530     9.3830 ha         1 7X6       0.118000
     42 H18         11.0080     8.1280    11.4150 ha         1 7X6       0.175000
     43 HA          14.1070    11.6270     9.8630 ha         1 7X6       0.116000
     44 H5          14.9860     9.6430    11.0140 ha         1 7X6       0.118000
     45 N1           9.8270    10.1460    10.0790 nu         1 7X6      -0.896100
@<TRIPOS>BOND
     1     1     2 1   
     2     1    27 1   
     3     1    29 1   
     4     2     3 ar  
     5     2    18 ar  
     6     3     4 ar  
     7     4     5 ar  
     8     4    30 1   
     9     5     6 ar  
    10     5    31 1   
    11     6     7 1   
    12     6    18 ar  
    13     7     8 1   
    14     7    32 1   
    15     8     9 ar  
    16     8    16 ar  
    17     9    10 1   
    18     9    13 ar  
    19    10    11 1   
    20    11    12 1   
    21    11    33 1   
    22    11    34 1   
    23    12    13 1   
    24    13    14 ar  
    25    14    15 ar  
    26    14    35 1   
    27    15    16 ar  
    28    15    36 1   
    29    16    17 1   
    30    19    20 1   
    31    19    37 1   
    32    19    38 1   
    33    19    39 1   
    34    20    21 2   
    35    20    22 2   
    36    20    45 1   
    37    23    24 ar  
    38    23    28 ar  
    39    23    45 1   
    40    24    25 ar  
    41    24    41 1   
    42    25    26 ar  
    43    25    43 1   
    44    26    27 ar  
    45    26    44 1   
    46    27    28 ar  
    47    28    42 1   
    48    40    45 1   
@<TRIPOS>SUBSTRUCTURE
     1 7X6         1 TEMP              0 ****  ****    0 ROOT
