@<TRIPOS>MOLECULE
7X6
   45    48     1     0     0
SMALL
No Charge or Current Charge


@<TRIPOS>ATOM
      1 N2          13.6510     7.6410    11.8520 nu         1 7X6      -0.929900
      2 C7          13.1710     6.3950    12.2250 ca         1 7X6       0.415900
      3 N3          13.9630     5.7160    13.0710 nb         1 7X6      -0.271000
      4 C8          13.5390     4.4930    13.4390 ca         1 7X6       0.167900
      5 C9          12.3320     3.9670    12.9590 ca         1 7X6      -0.314000
      6 C10         11.5810     4.7710    12.0970 ca         1 7X6       0.433900
      7 N4          10.3950     4.3540    11.5250 nu         1 7X6      -0.939900
      8 C11          9.4510     3.3560    11.8450 ca         1 7X6       0.306000
      9 C12          9.1620     2.9680    13.1760 ca         1 7X6       0.044100
     10 O3           9.6830     3.5050    14.3190 os         1 7X6      -0.323100
     11 C13          9.1170     2.6520    15.3720 c5         1 7X6       0.369600
     12 O4           8.0630     1.8100    14.7910 os         1 7X6      -0.338100
     13 C14          8.2220     2.0110    13.4580 ca         1 7X6       0.068100
     14 C15          7.4920     1.3670    12.4540 ca         1 7X6      -0.096000
     15 C16          7.7390     1.7330    11.1170 ca         1 7X6      -0.089000
     16 C17          8.7030     2.7230    10.8130 ca         1 7X6       0.097000
     17 Cl1          8.9560     3.1600     9.1190 cl         1 7X6      -0.190000
     18 N5          12.0050     5.9770    11.7060 nb         1 7X6      -0.310000
     19 C1           8.8310     7.9750     9.4580 c3         1 7X6      -0.379100
     20 S1           8.5840     9.3940    10.5030 s6         1 7X6       1.209100
     21 O1           8.6330     8.9870    11.9080 o          1 7X6      -0.530500
     22 O2           7.4520    10.1670     9.9910 o          1 7X6      -0.530500
     23 C2          11.2610    10.0530    10.3180 ca         1 7X6       0.317000
     24 C3          12.1600    10.8660     9.6130 ca         1 7X6      -0.186000
     25 C4          13.5400    10.6130     9.6600 ca         1 7X6      -0.049000
     26 C5          14.0210     9.5310    10.4130 ca         1 7X6      -0.194000
     27 C6          13.1300     8.7030    11.1120 ca         1 7X6       0.358000
     28 C18         11.7550     8.9810    11.0790 ca         1 7X6      -0.201000
     29 H2          14.6330     7.7600    12.0960 hn         1 7X6       0.512000
     30 H8          14.1790     3.9280    14.1150 h4         1 7X6       0.019100
     31 H9          12.0080     2.9710    13.2390 ha         1 7X6       0.138000
     32 H4          10.2120     4.8210    10.6370 hn         1 7X6       0.540000
     33 H131         9.9100     2.0050    15.7670 h2         1 7X6       0.070700
     34 H132         8.7030     3.2730    16.1750 h2         1 7X6       0.070700
     35 H15          6.7440     0.6170    12.7030 ha         1 7X6       0.142000
     36 H16          7.1810     1.2590    10.3130 ha         1 7X6       0.139000
     37 H1C1         7.9600     7.3240     9.5820 h1         1 7X6       0.106367
     38 H1C2         8.9140     8.3340     8.4280 h1         1 7X6       0.106367
     39 H1C3         9.7480     7.4750     9.7810 h1         1 7X6       0.106367
     40 H1           9.6150    11.0550     9.5690 hn         1 7X6       0.501000
     41 H3          11.7930    11.7050     9.0270 ha         1 7X6       0.118000
     42 H18         11.0820     8.3730    11.6640 ha         1 7X6       0.175000
     43 HA          14.2330    11.2500     9.1140 ha         1 7X6       0.116000
     44 H5          15.0880     9.3320    10.4430 ha         1 7X6       0.118000
     45 N1           9.9070    10.3580    10.2400 nu         1 7X6      -0.896100
@<TRIPOS>BOND
     1     1     2 1   
     2     1    27 1   
     3     1    29 1   
     4     2     3 ar  
     5     2    18 ar  
     6     3     4 ar  
     7     4     5 ar  
     8     4    30 1   
     9     5     6 ar  
    10     5    31 1   
    11     6     7 1   
    12     6    18 ar  
    13     7     8 1   
    14     7    32 1   
    15     8     9 ar  
    16     8    16 ar  
    17     9    10 1   
    18     9    13 ar  
    19    10    11 1   
    20    11    12 1   
    21    11    33 1   
    22    11    34 1   
    23    12    13 1   
    24    13    14 ar  
    25    14    15 ar  
    26    14    35 1   
    27    15    16 ar  
    28    15    36 1   
    29    16    17 1   
    30    19    20 1   
    31    19    37 1   
    32    19    38 1   
    33    19    39 1   
    34    20    21 2   
    35    20    22 2   
    36    20    45 1   
    37    23    24 ar  
    38    23    28 ar  
    39    23    45 1   
    40    24    25 ar  
    41    24    41 1   
    42    25    26 ar  
    43    25    43 1   
    44    26    27 ar  
    45    26    44 1   
    46    27    28 ar  
    47    28    42 1   
    48    40    45 1   
@<TRIPOS>SUBSTRUCTURE
     1 7X6         1 TEMP              0 ****  ****    0 ROOT
