@<TRIPOS>MOLECULE
7X7
   50    54     1     0     0
SMALL
abcg2


@<TRIPOS>ATOM
      1 CL1          8.2830     3.4500     9.8890 cl         1 7X7      -0.178000
      2 C1           8.4300     2.8640    11.5090 ca         1 7X7       0.097000
      3 C2           7.7340     1.7350    11.8950 ca         1 7X7      -0.093000
      4 C3           7.8500     1.2310    13.1950 ca         1 7X7      -0.094000
      5 C4           8.6690     1.9140    14.0580 ca         1 7X7       0.066100
      6 O1           8.9420     1.6510    15.3550 os         1 7X7      -0.340100
      7 C5           9.8170     2.6750    15.8120 c5         1 7X7       0.373600
      8 O2          10.0530     3.5460    14.7070 os         1 7X7      -0.326100
      9 C6           9.3440     3.0600    13.6730 ca         1 7X7       0.048100
     10 C7           9.2650     3.5700    12.3950 ca         1 7X7       0.300000
     11 N1           9.9430     4.7310    12.0220 nu         1 7X7      -0.945900
     12 C8          11.2920     4.8820    12.0180 ca         1 7X7       0.429900
     13 C9          12.1840     3.8420    12.3090 ca         1 7X7      -0.318000
     14 C10         13.5190     4.1770    12.2560 ca         1 7X7       0.169900
     15 N2          13.9730     5.3860    11.9540 nb         1 7X7      -0.275000
     16 C11         13.0340     6.2990    11.6840 ca         1 7X7       0.421900
     17 N3          13.5300     7.5290    11.3740 nu         1 7X7      -0.930900
     18 C12         12.9110     8.7270    11.0350 ca         1 7X7       0.353000
     19 C13         11.5400     8.8950    10.8500 ca         1 7X7      -0.170000
     20 C14         11.0740    10.1560    10.4950 ca         1 7X7      -0.059000
     21 C15         11.9140    11.2390    10.3270 ca         1 7X7      -0.186000
     22 C16         13.2980    11.0860    10.5140 ca         1 7X7       0.328000
     23 C17         13.7710     9.8190    10.8540 ca         1 7X7      -0.238000
     24 N4          14.1520    12.1800    10.3970 nh         1 7X7      -0.788400
     25 C18         15.5650    11.9810    10.6520 c6         1 7X7       0.161800
     26 C19         16.2650    13.3190    10.8130 c6         1 7X7       0.146600
     27 O3          16.0640    14.1630     9.7050 os         1 7X7      -0.444000
     28 C20         14.6870    14.3930     9.5150 c6         1 7X7       0.146600
     29 C21         13.9280    13.1010     9.2900 c6         1 7X7       0.161800
     30 N5          11.7250     6.1010    11.7010 nb         1 7X7      -0.308000
     31 H2           7.0970     1.2280    11.1840 ha         1 7X7       0.139000
     32 H3           7.3140     0.3410    13.4940 ha         1 7X7       0.142000
     33 H5C1         9.3460     3.2320    16.6240 h2         1 7X7       0.070200
     34 H5C2        10.7610     2.2370    16.1420 h2         1 7X7       0.070200
     35 H1           9.4070     5.5110    11.6700 hn         1 7X7       0.522000
     36 H9          11.8670     2.8380    12.5430 ha         1 7X7       0.138000
     37 H10         14.2700     3.4230    12.4680 h4         1 7X7       0.018100
     38 HA          14.5370     7.5620    11.4190 hn         1 7X7       0.509000
     39 H13         10.8540     8.0760    10.9800 ha         1 7X7       0.146000
     40 H17         14.8320     9.6480    10.9800 ha         1 7X7       0.109000
     41 H14         10.0100    10.2950    10.3540 ha         1 7X7       0.109000
     42 H15         11.4860    12.1990    10.0750 ha         1 7X7       0.114000
     43 H181        15.7020    11.4310    11.5840 h1         1 7X7       0.047700
     44 H182        16.0460    11.3980     9.8510 h1         1 7X7       0.047700
     45 H211        14.2390    12.6490     8.3370 h1         1 7X7       0.047700
     46 H212        12.8720    13.3500     9.2020 h1         1 7X7       0.047700
     47 H191        15.9080    13.8030    11.7330 h1         1 7X7       0.052700
     48 H192        17.3390    13.1560    10.9160 h1         1 7X7       0.052700
     49 H201        14.2620    14.9190    10.3820 h1         1 7X7       0.052700
     50 H202        14.5770    15.0380     8.6420 h1         1 7X7       0.052700
@<TRIPOS>BOND
     1     1     2 1   
     2     2     3 ar  
     3     2    10 ar  
     4     3     4 ar  
     5     3    31 1   
     6     4     5 ar  
     7     4    32 1   
     8     5     6 1   
     9     5     9 ar  
    10     6     7 1   
    11     7     8 1   
    12     7    33 1   
    13     7    34 1   
    14     8     9 1   
    15     9    10 ar  
    16    10    11 1   
    17    11    12 1   
    18    11    35 1   
    19    12    13 ar  
    20    12    30 ar  
    21    13    14 ar  
    22    13    36 1   
    23    14    15 ar  
    24    14    37 1   
    25    15    16 ar  
    26    16    17 1   
    27    16    30 ar  
    28    17    18 1   
    29    17    38 1   
    30    18    19 ar  
    31    18    23 ar  
    32    19    20 ar  
    33    19    39 1   
    34    20    21 ar  
    35    20    41 1   
    36    21    22 ar  
    37    21    42 1   
    38    22    23 ar  
    39    22    24 1   
    40    23    40 1   
    41    24    25 1   
    42    24    29 1   
    43    25    26 1   
    44    25    43 1   
    45    25    44 1   
    46    26    27 1   
    47    26    47 1   
    48    26    48 1   
    49    27    28 1   
    50    28    29 1   
    51    28    49 1   
    52    28    50 1   
    53    29    45 1   
    54    29    46 1   
@<TRIPOS>SUBSTRUCTURE
     1 7X7         1 TEMP              0 ****  ****    0 ROOT
