@<TRIPOS>MOLECULE
7X7
   50    54     1     0     0
SMALL
No Charge or Current Charge


@<TRIPOS>ATOM
      1 Cl1          8.3140     3.9210     9.5660 cl         1 7X7      -0.178000
      2 C1           8.3920     3.1130    11.1370 ca         1 7X7       0.097000
      3 C2           7.4850     2.0590    11.3970 ca         1 7X7      -0.093000
      4 C3           7.5020     1.3960    12.6390 ca         1 7X7      -0.094000
      5 C4           8.4350     1.8120    13.5940 ca         1 7X7       0.066100
      6 O1           8.5420     1.3120    14.8520 os         1 7X7      -0.340100
      7 C5           9.7130     2.0230    15.3820 c5         1 7X7       0.373600
      8 O2          10.0760     3.1050    14.4570 os         1 7X7      -0.326100
      9 C6           9.3210     2.8290    13.3530 ca         1 7X7       0.048100
     10 C7           9.3460     3.5150    12.1130 ca         1 7X7       0.300000
     11 N1          10.2340     4.5800    11.8460 nu         1 7X7      -0.945900
     12 C8          11.5350     4.8550    12.2200 ca         1 7X7       0.429900
     13 C9          12.4100     3.8730    12.6920 ca         1 7X7      -0.318000
     14 C10         13.7190     4.2710    12.9970 ca         1 7X7       0.169900
     15 N2          14.1170     5.5460    12.8290 nb         1 7X7      -0.275000
     16 C11         13.1960     6.4050    12.3610 ca         1 7X7       0.421900
     17 N3          13.6620     7.6950    12.1630 nu         1 7X7      -0.930900
     18 C12         13.0720     8.9110    11.8120 ca         1 7X7       0.353000
     19 C13         11.7240     9.2030    12.0880 ca         1 7X7      -0.170000
     20 C14         11.1820    10.4460    11.7290 ca         1 7X7      -0.059000
     21 C15         11.9930    11.4010    11.0970 ca         1 7X7      -0.186000
     22 C16         13.3450    11.1270    10.8290 ca         1 7X7       0.328000
     23 C17         13.8770     9.8790    11.1990 ca         1 7X7      -0.238000
     24 N4          14.1490    12.1070    10.2010 nh         1 7X7      -0.788400
     25 C18         15.6320    12.1610    10.4270 c6         1 7X7       0.161800
     26 C19         16.2290    13.5620    10.0980 c6         1 7X7       0.146600
     27 O3          15.8320    13.9940     8.7760 os         1 7X7      -0.444000
     28 C20         14.3950    14.0930     8.6350 c6         1 7X7       0.146600
     29 C21         13.7150    12.7160     8.9000 c6         1 7X7       0.161800
     30 N5          11.9270     6.1190    12.0280 nb         1 7X7      -0.308000
     31 H2           6.7660     1.7650    10.6350 ha         1 7X7       0.139000
     32 H3           6.8020     0.5920    12.8580 ha         1 7X7       0.142000
     33 H5C1         9.4850     2.4370    16.3710 h2         1 7X7       0.070200
     34 H5C2        10.5520     1.3210    15.4520 h2         1 7X7       0.070200
     35 H1           9.8800     5.2490    11.1620 hn         1 7X7       0.522000
     36 H9          12.1030     2.8400    12.8060 ha         1 7X7       0.138000
     37 H10         14.4590     3.5640    13.3670 h4         1 7X7       0.018100
     38 HA          14.6780     7.7420    12.2150 hn         1 7X7       0.509000
     39 H13         11.0960     8.4820    12.5990 ha         1 7X7       0.146000
     40 H17         14.9160     9.6480    10.9900 ha         1 7X7       0.109000
     41 H14         10.1400    10.6710    11.9460 ha         1 7X7       0.109000
     42 H15         11.5710    12.3660    10.8340 ha         1 7X7       0.114000
     43 H181        15.8650    11.9240    11.4760 h1         1 7X7       0.047700
     44 H182        16.1340    11.4080     9.8010 h1         1 7X7       0.047700
     45 H211        13.9640    12.0360     8.0720 h1         1 7X7       0.047700
     46 H212        12.6260    12.8620     8.8780 h1         1 7X7       0.047700
     47 H191        15.8820    14.2980    10.8380 h1         1 7X7       0.052700
     48 H192        17.3260    13.5210    10.1500 h1         1 7X7       0.052700
     49 H201        14.0130    14.8400     9.3470 h1         1 7X7       0.052700
     50 H202        14.1550    14.4380     7.6200 h1         1 7X7       0.052700
@<TRIPOS>BOND
     1     1     2 1   
     2     2     3 ar  
     3     2    10 ar  
     4     3     4 ar  
     5     3    31 1   
     6     4     5 ar  
     7     4    32 1   
     8     5     6 1   
     9     5     9 ar  
    10     6     7 1   
    11     7     8 1   
    12     7    33 1   
    13     7    34 1   
    14     8     9 1   
    15     9    10 ar  
    16    10    11 1   
    17    11    12 1   
    18    11    35 1   
    19    12    13 ar  
    20    12    30 ar  
    21    13    14 ar  
    22    13    36 1   
    23    14    15 ar  
    24    14    37 1   
    25    15    16 ar  
    26    16    17 1   
    27    16    30 ar  
    28    17    18 1   
    29    17    38 1   
    30    18    19 ar  
    31    18    23 ar  
    32    19    20 ar  
    33    19    39 1   
    34    20    21 ar  
    35    20    41 1   
    36    21    22 ar  
    37    21    42 1   
    38    22    23 ar  
    39    22    24 1   
    40    23    40 1   
    41    24    25 1   
    42    24    29 1   
    43    25    26 1   
    44    25    43 1   
    45    25    44 1   
    46    26    27 1   
    47    26    47 1   
    48    26    48 1   
    49    27    28 1   
    50    28    29 1   
    51    28    49 1   
    52    28    50 1   
    53    29    45 1   
    54    29    46 1   
@<TRIPOS>SUBSTRUCTURE
     1 7X7         1 TEMP              0 ****  ****    0 ROOT
