@<TRIPOS>MOLECULE
7X8
   41    44     1     0     0
SMALL
abcg2


@<TRIPOS>ATOM
      1 N2          13.6000     7.4280    11.5860 nu         1 7X8      -0.931900
      2 C7          13.0890     6.2030    11.8990 ca         1 7X8       0.418900
      3 N3          14.0030     5.3220    12.3150 nb         1 7X8      -0.275000
      4 C8          13.5330     4.1200    12.6230 ca         1 7X8       0.168900
      5 C9          12.2040     3.7660    12.5460 ca         1 7X8      -0.318000
      6 C10         11.3360     4.7750    12.1080 ca         1 7X8       0.432900
      7 N4           9.9980     4.6030    11.9730 nu         1 7X8      -0.941900
      8 C11          9.2970     3.4500    12.3290 ca         1 7X8       0.301000
      9 C12          9.2510     2.9990    13.6300 ca         1 7X8       0.046100
     10 O2           9.8290     3.5530    14.7130 os         1 7X8      -0.325100
     11 C13          9.6410     2.6240    15.7790 c5         1 7X8       0.370600
     12 O3           8.6810     1.6760    15.3320 os         1 7X8      -0.339100
     13 C14          8.5530     1.8610    13.9980 ca         1 7X8       0.065100
     14 C15          7.8320     1.1280    13.0900 ca         1 7X8      -0.094000
     15 C16          7.8410     1.5730    11.7640 ca         1 7X8      -0.093000
     16 C17          8.5620     2.6930    11.3970 ca         1 7X8       0.098000
     17 CL1          8.5750     3.2010     9.7450 cl         1 7X8      -0.175000
     18 N5          11.7890     5.9840    11.7810 nb         1 7X8      -0.305000
     19 N1           9.3650    10.9320     9.0390 nt         1 7X8      -0.603000
     20 O1           8.9220     9.1590    10.3540 o          1 7X8      -0.604100
     21 C2          11.1690     9.9260    10.2840 ca         1 7X8      -0.125600
     22 C3          11.9950    11.0410    10.1980 ca         1 7X8      -0.124000
     23 C4          13.3260    10.9240    10.5730 ca         1 7X8      -0.088000
     24 C5          13.8280     9.7190    11.0250 ca         1 7X8      -0.157000
     25 C6          13.0010     8.5920    11.1270 ca         1 7X8       0.319000
     26 C18         11.6610     8.7130    10.7590 ca         1 7X8      -0.089000
     27 H2          14.5950     7.4880    11.7440 hn         1 7X8       0.511000
     28 H8          14.2650     3.3890    12.9490 h4         1 7X8       0.018100
     29 H9          11.8760     2.7680    12.7900 ha         1 7X8       0.137000
     30 H4           9.4950     5.3550    11.5260 hn         1 7X8       0.531000
     31 H131        10.5870     2.1230    16.0020 h2         1 7X8       0.070200
     32 H132         9.2640     3.1470    16.6570 h2         1 7X8       0.070200
     33 H15          7.2740     0.2470    13.3750 ha         1 7X8       0.142000
     34 H16          7.2850     1.0250    11.0160 ha         1 7X8       0.139000
     35 H1N1         8.4120    10.9800     8.7170 hn         1 7X8       0.312500
     36 H1N2        10.0370    11.4950     8.5460 hn         1 7X8       0.312500
     37 H3          11.6200    12.0020     9.8700 ha         1 7X8       0.112000
     38 H18         11.0010     7.8650    10.8320 ha         1 7X8       0.168000
     39 HA          13.9820    11.7840    10.5200 ha         1 7X8       0.115000
     40 H5          14.8710     9.6450    11.3090 ha         1 7X8       0.113000
     41 C1           9.7210     9.9670     9.9000 c          1 7X8       0.615700
@<TRIPOS>BOND
     1     1     2 1   
     2     1    25 1   
     3     1    27 1   
     4     2     3 ar  
     5     2    18 ar  
     6     3     4 ar  
     7     4     5 ar  
     8     4    28 1   
     9     5     6 ar  
    10     5    29 1   
    11     6     7 1   
    12     6    18 ar  
    13     7     8 1   
    14     7    30 1   
    15     8     9 ar  
    16     8    16 ar  
    17     9    10 1   
    18     9    13 ar  
    19    10    11 1   
    20    11    12 1   
    21    11    31 1   
    22    11    32 1   
    23    12    13 1   
    24    13    14 ar  
    25    14    15 ar  
    26    14    33 1   
    27    15    16 ar  
    28    15    34 1   
    29    16    17 1   
    30    19    35 1   
    31    19    36 1   
    32    19    41 1   
    33    20    41 2   
    34    21    22 ar  
    35    21    26 ar  
    36    21    41 1   
    37    22    23 ar  
    38    22    37 1   
    39    23    24 ar  
    40    23    39 1   
    41    24    25 ar  
    42    24    40 1   
    43    25    26 ar  
    44    26    38 1   
@<TRIPOS>SUBSTRUCTURE
     1 7X8         1 TEMP              0 ****  ****    0 ROOT
