@<TRIPOS>MOLECULE
7X8
   41    44     1     0     0
SMALL
No Charge or Current Charge


@<TRIPOS>ATOM
      1 N2          13.6140     7.5580    11.7550 nu         1 7X8      -0.931900
      2 C7          13.1720     6.3110    12.1710 ca         1 7X8       0.418900
      3 N3          14.0400     5.6410    12.9470 nb         1 7X8      -0.275000
      4 C8          13.6580     4.4170    13.3550 ca         1 7X8       0.168900
      5 C9          12.4180     3.8810    12.9840 ca         1 7X8      -0.318000
      6 C10         11.5890     4.6760    12.1880 ca         1 7X8       0.432900
      7 N4          10.3600     4.2450    11.7250 nu         1 7X8      -0.941900
      8 C11          9.4740     3.2190    12.1190 ca         1 7X8       0.301000
      9 C12          9.2980     2.8360    13.4720 ca         1 7X8       0.046100
     10 O2           9.8850     3.4020    14.5680 os         1 7X8      -0.325100
     11 C13          9.4290     2.5420    15.6670 c5         1 7X8       0.370600
     12 O3           8.3620     1.6610    15.1750 os         1 7X8      -0.339100
     13 C14          8.4150     1.8520    13.8310 ca         1 7X8       0.065100
     14 C15          7.6340     1.1730    12.8910 ca         1 7X8      -0.094000
     15 C16          7.7700     1.5310    11.5350 ca         1 7X8      -0.093000
     16 C17          8.6750     2.5490    11.1520 ca         1 7X8       0.098000
     17 Cl1          8.7910     2.9690     9.4390 cl         1 7X8      -0.175000
     18 N5          11.9680     5.8840    11.7580 nb         1 7X8      -0.305000
     19 N1           9.1080    11.2810     9.7320 nt         1 7X8      -0.603000
     20 O1           8.8420     9.5090    11.0350 o          1 7X8      -0.604100
     21 C2          11.1030     9.9850    10.3680 ca         1 7X8      -0.125600
     22 C3          11.9800    10.8300     9.6450 ca         1 7X8      -0.124000
     23 C4          13.3620    10.5830     9.6400 ca         1 7X8      -0.088000
     24 C5          13.8860     9.4890    10.3470 ca         1 7X8      -0.157000
     25 C6          13.0370     8.6260    11.0570 ca         1 7X8       0.319000
     26 C18         11.6530     8.8880    11.0740 ca         1 7X8      -0.089000
     27 H2          14.6100     7.6820    11.9350 hn         1 7X8       0.511000
     28 H8          14.3590     3.8590    13.9760 h4         1 7X8       0.018100
     29 H9          12.1270     2.8840    13.2960 ha         1 7X8       0.137000
     30 H4          10.0840     4.7210    10.8660 hn         1 7X8       0.531000
     31 H131        10.2700     1.9250    16.0060 h2         1 7X8       0.070200
     32 H132         9.0560     3.1580    16.4940 h2         1 7X8       0.070200
     33 H15          6.9330     0.4010    13.2010 ha         1 7X8       0.142000
     34 H16          7.1710     1.0290    10.7790 ha         1 7X8       0.139000
     35 H1N1         8.1140    11.4530     9.7530 hn         1 7X8       0.312500
     36 H1N2         9.7230    11.8860     9.2110 hn         1 7X8       0.312500
     37 H3          11.6060    11.6850     9.0880 ha         1 7X8       0.112000
     38 H18         10.9960     8.2480    11.6530 ha         1 7X8       0.168000
     39 HA          14.0290    11.2410     9.0860 ha         1 7X8       0.115000
     40 H5          14.9580     9.3100    10.3330 ha         1 7X8       0.113000
     41 C1           9.6080    10.2260    10.4120 c          1 7X8       0.615700
@<TRIPOS>BOND
     1     1     2 1   
     2     1    25 1   
     3     1    27 1   
     4     2     3 ar  
     5     2    18 ar  
     6     3     4 ar  
     7     4     5 ar  
     8     4    28 1   
     9     5     6 ar  
    10     5    29 1   
    11     6     7 1   
    12     6    18 ar  
    13     7     8 1   
    14     7    30 1   
    15     8     9 ar  
    16     8    16 ar  
    17     9    10 1   
    18     9    13 ar  
    19    10    11 1   
    20    11    12 1   
    21    11    31 1   
    22    11    32 1   
    23    12    13 1   
    24    13    14 ar  
    25    14    15 ar  
    26    14    33 1   
    27    15    16 ar  
    28    15    34 1   
    29    16    17 1   
    30    19    35 1   
    31    19    36 1   
    32    19    41 1   
    33    20    41 2   
    34    21    22 ar  
    35    21    26 ar  
    36    21    41 1   
    37    22    23 ar  
    38    22    37 1   
    39    23    24 ar  
    40    23    39 1   
    41    24    25 ar  
    42    24    40 1   
    43    25    26 ar  
    44    26    38 1   
@<TRIPOS>SUBSTRUCTURE
     1 7X8         1 TEMP              0 ****  ****    0 ROOT
