@<TRIPOS>MOLECULE
7X9
   30    32     1     0     0
SMALL
bcc


@<TRIPOS>ATOM
      1 OAM        -31.2100    52.7550   -30.1880 o          1 7X9      -0.545100
      2 CAG        -30.7400    52.7620   -29.0520 c          1 7X9       0.593900
      3 CAH        -30.9690    51.7660   -28.0300 cc         1 7X9      -0.296400
      4 CAN        -31.9060    50.5690   -28.1690 c          1 7X9       0.939800
      5 OAP        -31.7650    49.6650   -27.3170 o          1 7X9      -0.818300
      6 OAO        -32.7460    50.5970   -29.0830 o          1 7X9      -0.818300
      7 CAI        -30.3240    51.9000   -26.8340 cd         1 7X9       0.064000
      8 NAJ        -29.4960    52.8980   -26.4880 na         1 7X9      -0.513800
      9 CAE        -29.2290    53.9100   -27.3850 ca         1 7X9       0.184600
     10 CAD        -29.8290    53.8610   -28.6520 ca         1 7X9      -0.196600
     11 CAC        -29.5710    54.8840   -29.5730 ca         1 7X9      -0.084000
     12 CAB        -28.7400    55.9080   -29.2150 ca         1 7X9       0.055900
     13 FAQ        -28.4950    56.9010   -30.0870 f          1 7X9      -0.163900
     14 CAA        -28.1240    55.9580   -27.9710 ca         1 7X9      -0.131000
     15 CAF        -28.3570    54.9650   -27.0440 ca         1 7X9      -0.135300
     16 CAL        -27.6870    55.0040   -25.7010 c6         1 7X9      -0.018100
     17 CAR        -27.6400    53.6200   -25.0770 c6         1 7X9      -0.085400
     18 CAK        -29.0120    52.9670   -25.1020 c6         1 7X9       0.236500
     19 CAS        -30.0340    53.6700   -24.2170 c3         1 7X9      -0.111100
     20 H2         -30.4770    51.1500   -26.0700 h4         1 7X9       0.171000
     21 H3         -30.0300    54.8540   -30.5520 ha         1 7X9       0.168000
     22 H4         -27.4530    56.7740   -27.7310 ha         1 7X9       0.129000
     23 H5         -26.6790    55.4080   -25.8070 hc         1 7X9       0.041700
     24 H6         -28.2210    55.6980   -25.0450 hc         1 7X9       0.041700
     25 H7         -26.9310    52.9890   -25.6190 hc         1 7X9       0.048200
     26 H8         -27.2940    53.6760   -24.0450 hc         1 7X9       0.048200
     27 H9         -28.9090    51.9340   -24.7660 h1         1 7X9       0.065700
     28 H10        -29.6740    53.7050   -23.1890 hc         1 7X9       0.042700
     29 H11        -30.2250    54.6920   -24.5450 hc         1 7X9       0.042700
     30 H12        -30.9830    53.1340   -24.2220 hc         1 7X9       0.042700
@<TRIPOS>BOND
     1     1     2 2   
     2     2     3 1   
     3     2    10 1   
     4     3     4 1   
     5     3     7 2   
     6     4     5 1   
     7     4     6 1   
     8     7     8 1   
     9     7    20 1   
    10     8     9 1   
    11     8    18 1   
    12     9    10 ar  
    13     9    15 ar  
    14    10    11 ar  
    15    11    12 ar  
    16    11    21 1   
    17    12    13 1   
    18    12    14 ar  
    19    14    15 ar  
    20    14    22 1   
    21    15    16 1   
    22    16    17 1   
    23    16    23 1   
    24    16    24 1   
    25    17    18 1   
    26    17    25 1   
    27    17    26 1   
    28    18    19 1   
    29    18    27 1   
    30    19    28 1   
    31    19    29 1   
    32    19    30 1   
@<TRIPOS>SUBSTRUCTURE
     1 7X9         1 TEMP              0 ****  ****    0 ROOT
