@<TRIPOS>MOLECULE
7X9
   30    32     1     0     0
SMALL
No Charge or Current Charge


@<TRIPOS>ATOM
      1 OAM        -31.7110    53.0040   -29.8890 o          1 7X9      -0.545100
      2 CAG        -30.9680    52.8700   -28.9220 c          1 7X9       0.593900
      3 CAH        -30.9170    51.6940   -28.0400 cc         1 7X9      -0.296400
      4 CAN        -31.6600    50.4570   -28.4020 c          1 7X9       0.729200
      5 OAP        -31.6310    49.5180   -27.6190 o          1 7X9      -0.713000
      6 OAO        -32.2570    50.3690   -29.4620 o          1 7X9      -0.713000
      7 CAI        -30.2230    51.6920   -26.8350 cd         1 7X9       0.014000
      8 NAJ        -29.6060    52.8870   -26.4070 na         1 7X9      -0.652200
      9 CAE        -29.3070    53.8710   -27.3740 ca         1 7X9       0.323000
     10 CAD        -29.9890    53.9320   -28.5950 ca         1 7X9      -0.196600
     11 CAC        -29.7290    54.9740   -29.5160 ca         1 7X9      -0.066000
     12 CAB        -28.7740    55.9510   -29.2190 ca         1 7X9       0.091000
     13 FAQ        -28.5250    56.9420   -30.1020 f          1 7X9      -0.199000
     14 CAA        -28.0710    55.9000   -28.0120 ca         1 7X9      -0.113000
     15 CAF        -28.3300    54.8690   -27.0870 ca         1 7X9      -0.135300
     16 CAL        -27.5500    54.8810   -25.7690 c6         1 7X9      -0.018100
     17 CAR        -27.6700    53.5480   -25.0100 c6         1 7X9      -0.085400
     18 CAK        -29.1260    53.0350   -25.0070 c6         1 7X9       0.236500
     19 CAS        -30.0790    53.9210   -24.1630 c3         1 7X9      -0.111100
     20 H2         -30.2100    50.8460   -26.1480 h4         1 7X9       0.221000
     21 H3         -30.2570    55.0240   -30.4660 ha         1 7X9       0.150000
     22 H4         -27.3310    56.6650   -27.7890 ha         1 7X9       0.111000
     23 H5         -26.4890    55.0970   -25.9590 hc         1 7X9       0.041700
     24 H6         -27.9200    55.7010   -25.1390 hc         1 7X9       0.041700
     25 H7         -27.0280    52.7980   -25.4920 hc         1 7X9       0.048200
     26 H8         -27.2980    53.6590   -23.9820 hc         1 7X9       0.048200
     27 H9         -29.1170    52.0420   -24.5320 h1         1 7X9       0.065700
     28 H10        -29.7130    54.0260   -23.1350 hc         1 7X9       0.042700
     29 H11        -30.1850    54.9250   -24.5880 hc         1 7X9       0.042700
     30 H12        -31.0800    53.4760   -24.1140 hc         1 7X9       0.042700
@<TRIPOS>BOND
     1     1     2 2   
     2     2     3 1   
     3     2    10 1   
     4     3     4 1   
     5     3     7 2   
     6     4     5 1   
     7     4     6 1   
     8     7     8 1   
     9     7    20 1   
    10     8     9 1   
    11     8    18 1   
    12     9    10 ar  
    13     9    15 ar  
    14    10    11 ar  
    15    11    12 ar  
    16    11    21 1   
    17    12    13 1   
    18    12    14 ar  
    19    14    15 ar  
    20    14    22 1   
    21    15    16 1   
    22    16    17 1   
    23    16    23 1   
    24    16    24 1   
    25    17    18 1   
    26    17    25 1   
    27    17    26 1   
    28    18    19 1   
    29    18    27 1   
    30    19    28 1   
    31    19    29 1   
    32    19    30 1   
@<TRIPOS>SUBSTRUCTURE
     1 7X9         1 TEMP              0 ****  ****    0 ROOT
