@<TRIPOS>MOLECULE
7XA
   27    26     1     0     0
SMALL
No Charge or Current Charge


@<TRIPOS>ATOM
      1 O10          5.1830    -0.0270    -0.5400 oh         1 7XA      -0.431100
      2 N9           3.7910     0.3720    -0.5340 ns         1 7XA      -0.384400
      3 C8           2.9820     0.1410     0.5730 c          1 7XA       0.598100
      4 O11          3.3250    -0.5800     1.5010 o          1 7XA      -0.565100
      5 C7           1.6370     0.8800     0.5620 c3         1 7XA      -0.159400
      6 C6           0.4570    -0.0850     0.2920 c3         1 7XA      -0.066400
      7 C5          -0.9130     0.6290     0.2740 c3         1 7XA      -0.076400
      8 C4          -2.0920    -0.3330     0.0050 c3         1 7XA      -0.074400
      9 C3          -3.4620     0.3800    -0.0140 c3         1 7XA      -0.078400
     10 C2          -4.6350    -0.5850    -0.2820 c3         1 7XA       0.149800
     11 N1          -5.9280     0.1230    -0.2970 n8         1 7XA      -0.995200
     12 H1           5.2830    -0.5120    -1.3940 ho         1 7XA       0.448000
     13 HN9          3.5270     1.0960    -1.2020 hn         1 7XA       0.326500
     14 H71          1.4870     1.3450     1.5430 hc         1 7XA       0.058700
     15 H72          1.6400     1.6520    -0.2170 hc         1 7XA       0.058700
     16 H62          0.6150    -0.5880    -0.6700 hc         1 7XA       0.055700
     17 H61          0.4460    -0.8670     1.0620 hc         1 7XA       0.055700
     18 H52         -1.0700     1.1310     1.2360 hc         1 7XA       0.037200
     19 H51         -0.9020     1.4090    -0.4980 hc         1 7XA       0.037200
     20 H41         -1.9350    -0.8360    -0.9570 hc         1 7XA       0.039700
     21 H42         -2.1030    -1.1130     0.7770 hc         1 7XA       0.039700
     22 H32         -3.6190     0.8820     0.9490 hc         1 7XA       0.045200
     23 H31         -3.4520     1.1590    -0.7860 hc         1 7XA       0.045200
     24 H21         -4.4940    -1.0780    -1.2540 h1         1 7XA       0.026700
     25 H22         -4.6660    -1.3580     0.4980 h1         1 7XA       0.026700
     26 HN11        -6.6840    -0.5630    -0.4150 hn         1 7XA       0.391500
     27 HN13        -6.1030     0.5150     0.6360 hn         1 7XA       0.391500
@<TRIPOS>BOND
     1     1     2 1   
     2     1    12 1   
     3     2     3 1   
     4     2    13 1   
     5     3     4 2   
     6     3     5 1   
     7     5     6 1   
     8     5    14 1   
     9     5    15 1   
    10     6     7 1   
    11     6    16 1   
    12     6    17 1   
    13     7     8 1   
    14     7    18 1   
    15     7    19 1   
    16     8     9 1   
    17     8    20 1   
    18     8    21 1   
    19     9    10 1   
    20     9    22 1   
    21     9    23 1   
    22    10    11 1   
    23    10    24 1   
    24    10    25 1   
    25    11    26 1   
    26    11    27 1   
@<TRIPOS>SUBSTRUCTURE
     1 7XA         1 TEMP              0 ****  ****    0 ROOT
