@<TRIPOS>MOLECULE
7XA
   27    26     1     0     0
SMALL
abcg2


@<TRIPOS>ATOM
      1 O10          5.2120     0.2510    -0.0320 oh         1 7XA      -0.431100
      2 N9           3.9260     0.6340    -0.2810 ns         1 7XA      -0.384400
      3 C8           2.9120     0.0090     0.3550 c          1 7XA       0.598100
      4 O11          3.0520    -1.0380     0.9610 o          1 7XA      -0.565100
      5 C7           1.5910     0.7320     0.2280 c3         1 7XA      -0.159400
      6 C6           0.4000    -0.2080     0.1010 c3         1 7XA      -0.066400
      7 C5          -0.9220     0.5490     0.0790 c3         1 7XA      -0.076400
      8 C4          -2.1310    -0.3720    -0.0280 c3         1 7XA      -0.074400
      9 C3          -3.4560     0.3790    -0.0070 c3         1 7XA      -0.078400
     10 C2          -4.6580    -0.5460    -0.1180 c3         1 7XA       0.149800
     11 N1          -5.9050     0.2080    -0.0750 n8         1 7XA      -0.995200
     12 H1           5.4880    -0.2650    -0.8000 ho         1 7XA       0.448000
     13 HN9          3.8330     1.5850    -0.6080 hn         1 7XA       0.326500
     14 H71          1.4780     1.3450     1.1290 hc         1 7XA       0.058700
     15 H72          1.6120     1.4330    -0.6100 hc         1 7XA       0.058700
     16 H62          0.4950    -0.8040    -0.8130 hc         1 7XA       0.055700
     17 H61          0.4000    -0.9150     0.9340 hc         1 7XA       0.055700
     18 H52         -1.0060     1.1530     0.9890 hc         1 7XA       0.037200
     19 H51         -0.9260     1.2580    -0.7560 hc         1 7XA       0.037200
     20 H41         -2.0590    -0.9640    -0.9480 hc         1 7XA       0.039700
     21 H42         -2.1080    -1.0910     0.7970 hc         1 7XA       0.039700
     22 H32         -3.5270     0.9560     0.9220 hc         1 7XA       0.045200
     23 H31         -3.4860     1.1070    -0.8250 hc         1 7XA       0.045200
     24 H21         -4.6130    -1.0770    -1.0730 h1         1 7XA       0.026700
     25 H22         -4.5870    -1.3160     0.6650 h1         1 7XA       0.026700
     26 HN11        -6.6860    -0.4270    -0.1850 hn         1 7XA       0.391500
     27 HN13        -6.0140     0.6120     0.8470 hn         1 7XA       0.391500
@<TRIPOS>BOND
     1     1     2 1   
     2     1    12 1   
     3     2     3 1   
     4     2    13 1   
     5     3     4 2   
     6     3     5 1   
     7     5     6 1   
     8     5    14 1   
     9     5    15 1   
    10     6     7 1   
    11     6    16 1   
    12     6    17 1   
    13     7     8 1   
    14     7    18 1   
    15     7    19 1   
    16     8     9 1   
    17     8    20 1   
    18     8    21 1   
    19     9    10 1   
    20     9    22 1   
    21     9    23 1   
    22    10    11 1   
    23    10    24 1   
    24    10    25 1   
    25    11    26 1   
    26    11    27 1   
@<TRIPOS>SUBSTRUCTURE
     1 7XA         1 TEMP              0 ****  ****    0 ROOT
