@<TRIPOS>MOLECULE
7XB
   53    55     1     0     0
SMALL
bcc


@<TRIPOS>ATOM
      1 C10         -3.4710     2.1060    16.0220 cc         1 7XB       0.781800
      2 C12         -5.1900     3.7950    16.0480 ca         1 7XB       0.109600
      3 C13         -4.7170     5.0430    15.6330 ca         1 7XB      -0.021300
      4 C14         -3.5820     5.1640    14.6640 c3         1 7XB      -0.053800
      5 C15         -5.3330     6.1750    16.1470 ca         1 7XB      -0.135000
      6 C01         -0.9840    -2.4590    19.1560 c3         1 7XB       0.095300
      7 N02         -0.9130    -1.1550    18.5370 ns         1 7XB      -0.569900
      8 C03          0.1880    -0.7300    17.9090 c          1 7XB       0.664100
      9 O04          1.2090    -1.3950    17.8220 o          1 7XB      -0.593100
     10 C05          0.1580     0.6820    17.3430 c3         1 7XB       0.007000
     11 N06         -1.1510     1.1480    16.9260 n          1 7XB      -0.540400
     12 C07         -1.7470     2.2610    17.5480 c          1 7XB       0.873900
     13 O08         -1.2030     2.7840    18.4960 o          1 7XB      -0.575500
     14 N09         -2.9180     2.6990    17.0380 nd         1 7XB      -0.769100
     15 N11         -4.6050     2.6090    15.5240 nu         1 7XB      -0.729600
     16 C16         -6.3840     6.0710    17.0480 ca         1 7XB       0.152100
     17 O17         -6.8890     7.2590    17.5040 os         1 7XB      -0.366900
     18 C18         -8.1960     7.3460    17.8610 c3         1 7XB       0.619700
     19 F19         -8.3420     7.0670    19.1790 f          1 7XB      -0.231300
     20 F20         -8.5450     8.6330    17.7040 f          1 7XB      -0.231300
     21 C21         -6.8500     4.8310    17.4570 ca         1 7XB      -0.187000
     22 C22         -6.2430     3.6950    16.9400 ca         1 7XB      -0.082000
     23 N23         -2.9340     0.9910    15.4260 n          1 7XB      -0.445300
     24 C24         -3.5330     0.3190    14.2850 c3         1 7XB       0.139300
     25 C25         -3.0840     0.8670    12.9520 ca         1 7XB      -0.070300
     26 C26         -3.4540     0.1760    11.8020 ca         1 7XB      -0.159500
     27 C27         -3.0570     0.6460    10.5690 ca         1 7XB       0.134400
     28 F28         -3.3900    -0.0100     9.4580 f          1 7XB      -0.113400
     29 C29         -2.2970     1.7980    10.4490 ca         1 7XB       0.060900
     30 F30         -1.9110     2.2370     9.2530 f          1 7XB      -0.100900
     31 C31         -1.9440     2.4750    11.5980 ca         1 7XB       0.134400
     32 F32         -1.2160     3.5860    11.4860 f          1 7XB      -0.113400
     33 C33         -2.3250     2.0230    12.8460 ca         1 7XB      -0.159500
     34 C34         -1.7020     0.5090    15.8500 c          1 7XB       0.816500
     35 O35         -1.1590    -0.4180    15.2970 o          1 7XB      -0.595500
     36 H1          -3.7300     4.5310    13.7890 hc         1 7XB       0.052700
     37 H2          -3.4670     6.1910    14.3220 hc         1 7XB       0.052700
     38 H3          -2.6410     4.8620    15.1280 hc         1 7XB       0.052700
     39 H4          -4.9950     7.1570    15.8390 ha         1 7XB       0.159000
     40 H5          -1.9830    -2.5920    19.5610 h1         1 7XB       0.040367
     41 H6          -0.7980    -3.2530    18.4330 h1         1 7XB       0.040367
     42 H7          -0.2660    -2.5610    19.9700 h1         1 7XB       0.040367
     43 H8          -1.7110    -0.5490    18.6250 hn         1 7XB       0.317500
     44 H9           0.8560     0.7250    16.5080 h1         1 7XB       0.099200
     45 H10          0.5220     1.3630    18.1100 h1         1 7XB       0.099200
     46 H11         -5.0690     2.1800    14.7390 hn         1 7XB       0.459800
     47 H12         -8.8620     6.7000    17.2850 h3         1 7XB       0.059700
     48 H13         -7.6500     4.7210    18.1770 ha         1 7XB       0.153000
     49 H14         -6.5890     2.7170    17.2490 ha         1 7XB       0.142000
     50 H15         -4.6190     0.3490    14.3730 h1         1 7XB       0.082200
     51 H16         -3.2800    -0.7370    14.3490 h1         1 7XB       0.082200
     52 H17         -4.0410    -0.7320    11.8600 ha         1 7XB       0.159500
     53 H18         -2.0010     2.5900    13.7090 ha         1 7XB       0.159500
@<TRIPOS>BOND
     1     1    14 2   
     2     1    15 1   
     3     1    23 1   
     4     2     3 ar  
     5     2    15 1   
     6     2    22 ar  
     7     3     4 1   
     8     3     5 ar  
     9     4    36 1   
    10     4    37 1   
    11     4    38 1   
    12     5    16 ar  
    13     5    39 1   
    14     6     7 1   
    15     6    40 1   
    16     6    41 1   
    17     6    42 1   
    18     7     8 1   
    19     7    43 1   
    20     8     9 2   
    21     8    10 1   
    22    10    11 1   
    23    10    44 1   
    24    10    45 1   
    25    11    12 1   
    26    11    34 1   
    27    12    13 2   
    28    12    14 1   
    29    15    46 1   
    30    16    17 1   
    31    16    21 ar  
    32    17    18 1   
    33    18    19 1   
    34    18    20 1   
    35    18    47 1   
    36    21    22 ar  
    37    21    48 1   
    38    22    49 1   
    39    23    24 1   
    40    23    34 1   
    41    24    25 1   
    42    24    50 1   
    43    24    51 1   
    44    25    26 ar  
    45    25    33 ar  
    46    26    27 ar  
    47    26    52 1   
    48    27    28 1   
    49    27    29 ar  
    50    29    30 1   
    51    29    31 ar  
    52    31    32 1   
    53    31    33 ar  
    54    33    53 1   
    55    34    35 2   
@<TRIPOS>SUBSTRUCTURE
     1 7XB         1 TEMP              0 ****  ****    0 ROOT
