@<TRIPOS>MOLECULE
7XB
   53    55     1     0     0
SMALL
No Charge or Current Charge


@<TRIPOS>ATOM
      1 C10         -3.0730     1.9360    15.9750 cc         1 7XB       0.781800
      2 C12         -4.9280     3.6360    15.7550 ca         1 7XB       0.248000
      3 C13         -5.2120     4.6780    14.8390 ca         1 7XB      -0.021300
      4 C14         -4.6370     4.6760    13.4230 c3         1 7XB      -0.053800
      5 C15         -6.0410     5.7470    15.2380 ca         1 7XB      -0.117000
      6 C01         -1.6490    -2.3980    19.8340 c3         1 7XB       0.095300
      7 N02         -1.2280    -1.3040    18.9560 ns         1 7XB      -0.502900
      8 C03          0.0810    -0.9010    18.7850 c          1 7XB       0.597100
      9 O04          1.0020    -1.4490    19.3750 o          1 7XB      -0.593100
     10 C05          0.3160     0.2740    17.8130 c3         1 7XB       0.007000
     11 N06         -0.9110     0.8400    17.1470 n          1 7XB      -0.406400
     12 C07         -1.5720     1.8990    17.7530 c          1 7XB       0.731400
     13 O08         -1.2280     2.3710    18.8220 o          1 7XB      -0.500000
     14 N09         -2.6710     2.4240    17.1040 nd         1 7XB      -0.769100
     15 N11         -4.1260     2.5500    15.3770 nu         1 7XB      -0.923200
     16 C16         -6.5890     5.7950    16.5290 ca         1 7XB       0.152100
     17 O17         -7.3940     6.8700    16.8460 os         1 7XB      -0.390100
     18 C18         -7.9240     7.0750    18.1670 c3         1 7XB       0.400300
     19 F19         -6.9360     7.3780    19.0410 f          1 7XB      -0.110000
     20 F20         -8.7720     8.1280    18.1700 f          1 7XB      -0.110000
     21 C21         -6.3170     4.7510    17.4360 ca         1 7XB      -0.169000
     22 C22         -5.4930     3.6810    17.0450 ca         1 7XB      -0.064000
     23 N23         -2.4610     0.8770    15.3450 n          1 7XB      -0.378300
     24 C24         -2.9830     0.3030    14.0710 c3         1 7XB       0.139300
     25 C25         -2.8150     1.2210    12.8620 ca         1 7XB      -0.070300
     26 C26         -3.8670     1.3730    11.9350 ca         1 7XB      -0.141500
     27 C27         -3.7170     2.2200    10.8230 ca         1 7XB       0.169500
     28 F28         -4.7390     2.3550     9.9480 f          1 7XB      -0.148500
     29 C29         -2.5180     2.9260    10.6250 ca         1 7XB       0.096000
     30 F30         -2.3770     3.7460     9.5550 f          1 7XB      -0.136000
     31 C31         -1.4650     2.7730    11.5440 ca         1 7XB       0.169500
     32 F32         -0.3040     3.4430    11.3660 f          1 7XB      -0.148500
     33 C33         -1.6100     1.9250    12.6550 ca         1 7XB      -0.141500
     34 C34         -1.3320     0.3010    15.9340 c          1 7XB       0.607000
     35 O35         -0.7400    -0.6360    15.4220 o          1 7XB      -0.520000
     36 H1          -5.1340     3.9210    12.8020 hc         1 7XB       0.052700
     37 H2          -4.7720     5.6450    12.9290 hc         1 7XB       0.052700
     38 H3          -3.5610     4.4650    13.4260 hc         1 7XB       0.052700
     39 H4          -6.2640     6.5530    14.5430 ha         1 7XB       0.141000
     40 H5          -2.7400    -2.5080    19.7840 h1         1 7XB       0.040367
     41 H6          -1.1750    -3.3340    19.5110 h1         1 7XB       0.040367
     42 H7          -1.3540    -2.1770    20.8680 h1         1 7XB       0.040367
     43 H8          -1.9340    -0.8010    18.4330 hn         1 7XB       0.317500
     44 H9           1.0250    -0.0770    17.0540 h1         1 7XB       0.099200
     45 H10          0.8280     1.0590    18.3820 h1         1 7XB       0.099200
     46 H11         -4.1000     2.3800    14.3800 hn         1 7XB       0.515000
     47 H12         -8.4620     6.1890    18.5190 h3         1 7XB       0.059700
     48 H13         -6.7350     4.7460    18.4390 ha         1 7XB       0.135000
     49 H14         -5.2980     2.8760    17.7470 ha         1 7XB       0.124000
     50 H15         -4.0480     0.0710    14.2110 h1         1 7XB       0.082200
     51 H16         -2.5010    -0.6550    13.8420 h1         1 7XB       0.082200
     52 H17         -4.8030     0.8340    12.0680 ha         1 7XB       0.141500
     53 H18         -0.7800     1.8180    13.3500 ha         1 7XB       0.141500
@<TRIPOS>BOND
     1     1    14 2   
     2     1    15 1   
     3     1    23 1   
     4     2     3 ar  
     5     2    15 1   
     6     2    22 ar  
     7     3     4 1   
     8     3     5 ar  
     9     4    36 1   
    10     4    37 1   
    11     4    38 1   
    12     5    16 ar  
    13     5    39 1   
    14     6     7 1   
    15     6    40 1   
    16     6    41 1   
    17     6    42 1   
    18     7     8 1   
    19     7    43 1   
    20     8     9 2   
    21     8    10 1   
    22    10    11 1   
    23    10    44 1   
    24    10    45 1   
    25    11    12 1   
    26    11    34 1   
    27    12    13 2   
    28    12    14 1   
    29    15    46 1   
    30    16    17 1   
    31    16    21 ar  
    32    17    18 1   
    33    18    19 1   
    34    18    20 1   
    35    18    47 1   
    36    21    22 ar  
    37    21    48 1   
    38    22    49 1   
    39    23    24 1   
    40    23    34 1   
    41    24    25 1   
    42    24    50 1   
    43    24    51 1   
    44    25    26 ar  
    45    25    33 ar  
    46    26    27 ar  
    47    26    52 1   
    48    27    28 1   
    49    27    29 ar  
    50    29    30 1   
    51    29    31 ar  
    52    31    32 1   
    53    31    33 ar  
    54    33    53 1   
    55    34    35 2   
@<TRIPOS>SUBSTRUCTURE
     1 7XB         1 TEMP              0 ****  ****    0 ROOT
