@<TRIPOS>MOLECULE
7XC
   29    29     1     0     0
SMALL
bcc


@<TRIPOS>ATOM
      1 CD1        -28.9040   -16.8770    -2.7400 ca         1 7XC      -0.110000
      2 OXT        -27.4390   -13.7940    -7.1540 o          1 7XC      -0.835800
      3 N3         -33.8270   -18.8720    -3.0710 n2         1 7XC      -0.880100
      4 CG         -29.0900   -16.6440    -4.1020 ca         1 7XC      -0.073300
      5 CB         -28.0350   -15.9850    -4.9390 c3         1 7XC      -0.068100
      6 CA         -28.1730   -14.4430    -4.9840 c3         1 7XC       0.027500
      7 C          -27.1010   -13.9040    -5.9590 c          1 7XC       0.937600
      8 C10        -33.3550   -18.7790    -1.8850 c2         1 7XC       0.815100
      9 O          -25.9720   -13.6850    -5.4750 o          1 7XC      -0.835800
     10 N          -28.0440   -13.7970    -3.6900 n8         1 7XC      -0.877800
     11 CD2        -30.3280   -16.9860    -4.6350 ca         1 7XC      -0.110000
     12 CE2        -31.3460   -17.5400    -3.8700 ca         1 7XC      -0.175000
     13 CZ         -31.1460   -17.7690    -2.5060 ca         1 7XC       0.150600
     14 CE1        -29.9050   -17.4250    -1.9570 ca         1 7XC      -0.175000
     15 N2         -32.0910   -18.3000    -1.6350 nu         1 7XC      -0.736600
     16 N4         -33.9900   -19.1940    -0.7320 nv         1 7XC      -0.965800
     17 HD1        -27.9540   -16.6360    -2.2780 ha         1 7XC       0.131500
     18 H3         -34.7750   -19.2290    -3.0460 hn         1 7XC       0.370400
     19 HB1        -28.0820   -16.3700    -5.9610 hc         1 7XC       0.054200
     20 HB2        -27.0430   -16.2300    -4.5480 hc         1 7XC       0.054200
     21 HA         -29.1660   -14.2130    -5.3850 h1         1 7XC       0.047700
     22 H          -28.6460   -14.2450    -3.0100 hn         1 7XC       0.321300
     23 H2         -27.0930   -13.9210    -3.3650 hn         1 7XC       0.321300
     24 HD2        -30.5140   -16.8230    -5.6910 ha         1 7XC       0.131500
     25 HE2        -32.2870   -17.7980    -4.3260 ha         1 7XC       0.134500
     26 HE1        -29.7190   -17.5920    -0.9020 ha         1 7XC       0.134500
     27 H4         -31.7810   -18.3540    -0.6780 hn         1 7XC       0.426800
     28 H6         -33.7690   -18.7000     0.1190 hn         1 7XC       0.392300
     29 H5         -34.9830   -19.3360    -0.8290 hn         1 7XC       0.392300
@<TRIPOS>BOND
     1     1     4 ar  
     2     1    14 ar  
     3     1    17 1   
     4     2     7 1   
     5     3     8 2   
     6     3    18 1   
     7     4     5 1   
     8     4    11 ar  
     9     5     6 1   
    10     5    19 1   
    11     5    20 1   
    12     6     7 1   
    13     6    10 1   
    14     6    21 1   
    15     7     9 1   
    16     8    15 1   
    17     8    16 1   
    18    10    22 1   
    19    10    23 1   
    20    11    12 ar  
    21    11    24 1   
    22    12    13 ar  
    23    12    25 1   
    24    13    14 ar  
    25    13    15 1   
    26    14    26 1   
    27    15    27 1   
    28    16    28 1   
    29    16    29 1   
@<TRIPOS>SUBSTRUCTURE
     1 7XC         1 TEMP              0 ****  ****    0 ROOT
