@<TRIPOS>MOLECULE
7XD
   55    59     1     0     0
SMALL
abcg2


@<TRIPOS>ATOM
      1 C4           3.6150    -0.8540     0.3330 ca         1 7XD      -0.071800
      2 C5           2.6270     0.1430     0.3600 ca         1 7XD       0.179100
      3 C6           1.3120    -0.1680     0.7280 cp         1 7XD      -0.136000
      4 C7           6.9420     0.1370    -0.9300 ca         1 7XD      -0.165800
      5 C8          -5.2970     0.5730    -0.7340 c          1 7XD       0.661100
      6 C10          0.2680     0.8820     0.7630 cp         1 7XD      -0.054000
      7 C17         -1.8600     1.7350    -0.0330 ca         1 7XD      -0.118300
      8 C20          3.2500    -2.1600     0.6680 ca         1 7XD      -0.071000
      9 C21          0.9890    -1.4830     1.0440 ca         1 7XD      -0.052000
     10 C22          0.3700     1.9750     1.6240 ca         1 7XD      -0.103000
     11 C24         -0.6290     2.9380     1.6540 ca         1 7XD      -0.112000
     12 C28         -7.9790    -0.7010    -1.4520 ca         1 7XD      -0.153000
     13 C1           4.9980    -0.5590    -0.0400 cc         1 7XD      -0.003300
     14 N2           6.0250    -1.3200     0.4840 na         1 7XD      -0.221700
     15 C3           5.5330     0.3510    -0.9170 cd         1 7XD      -0.179200
     16 C9           7.2100    -0.9150    -0.0300 ca         1 7XD      -0.018200
     17 N11         -6.1490    -0.1140     0.0960 ns         1 7XD      -0.164000
     18 C12          8.0280     0.7120    -1.5940 ca         1 7XD       0.394900
     19 N13         -4.1000     0.8570    -0.1710 ns         1 7XD      -0.533900
     20 C14         -0.8530     0.7760    -0.0590 ca         1 7XD      -0.080000
     21 O15         -5.5780     0.9080    -1.8770 o          1 7XD      -0.624100
     22 O16          2.9920     1.3910     0.0190 oh         1 7XD      -0.526100
     23 C18         -3.0770     1.5790    -0.9020 c3         1 7XD       0.170300
     24 C19         -7.4470    -0.5450    -0.1700 ca         1 7XD      -0.003000
     25 C23          1.9510    -2.4800     1.0180 ca         1 7XD      -0.146000
     26 C25          8.5150    -1.3470     0.1880 ca         1 7XD      -0.183000
     27 N26          9.2690     0.3070    -1.3980 nb         1 7XD      -0.695000
     28 C27         -1.7400     2.8180     0.8320 ca         1 7XD      -0.088000
     29 C29         -8.2420    -0.8770     0.9320 ca         1 7XD      -0.153000
     30 C30          9.4960    -0.6920    -0.5290 ca         1 7XD       0.343900
     31 C31         -9.2770    -1.1700    -1.6070 ca         1 7XD      -0.082500
     32 C32         -9.5310    -1.3500     0.7610 ca         1 7XD      -0.082500
     33 C33        -10.0640    -1.4980    -0.5130 ca         1 7XD      -0.139000
     34 H1           3.9900    -2.9490     0.6290 ha         1 7XD       0.113000
     35 H2          -0.0310    -1.7200     1.3220 ha         1 7XD       0.117000
     36 H3           1.2200     2.0640     2.2900 ha         1 7XD       0.124000
     37 H4          -0.5430     3.7820     2.3260 ha         1 7XD       0.122000
     38 H6           5.9200    -2.0130     1.2080 hn         1 7XD       0.349000
     39 H7           4.9880     1.0660    -1.5080 ha         1 7XD       0.217000
     40 H8          -5.8590    -0.2200     1.0560 hn         1 7XD       0.142000
     41 H9           7.8790     1.5220    -2.3010 h4         1 7XD       0.019100
     42 H10         -3.8770     0.5240     0.7530 hn         1 7XD       0.315500
     43 H11         -0.9330    -0.0640    -0.7390 ha         1 7XD       0.125000
     44 H12          2.2270     1.9800     0.0010 ho         1 7XD       0.476000
     45 H13         -3.4480     2.5620    -1.2000 h1         1 7XD       0.060700
     46 H14         -2.8120     1.0440    -1.8170 h1         1 7XD       0.060700
     47 H15          1.6890    -3.4990     1.2650 ha         1 7XD       0.122000
     48 H16          8.7600    -2.1490     0.8710 ha         1 7XD       0.121000
     49 H17         -2.5160     3.5740     0.8610 ha         1 7XD       0.122000
     50 H18         -7.8430    -0.7600     1.9340 ha         1 7XD       0.125500
     51 H19         10.5320    -0.9850    -0.4030 h4         1 7XD       0.015100
     52 H20         -9.6710    -1.2850    -2.6090 ha         1 7XD       0.112500
     53 H21        -10.1220    -1.5990     1.6340 ha         1 7XD       0.112500
     54 H22        -11.0720    -1.8660    -0.6500 ha         1 7XD       0.115000
     55 H5          -7.3940    -0.4670    -2.3260 ha         1 7XD       0.125500
@<TRIPOS>BOND
     1     1     2 ar  
     2     1     8 ar  
     3     1    13 1   
     4     2     3 ar  
     5     2    22 1   
     6     3     6 1   
     7     3     9 ar  
     8     4    15 1   
     9     4    16 ar  
    10     4    18 ar  
    11     5    17 1   
    12     5    19 1   
    13     5    21 2   
    14     6    10 ar  
    15     6    20 ar  
    16     7    20 ar  
    17     7    23 1   
    18     7    28 ar  
    19     8    25 ar  
    20     8    34 1   
    21     9    25 ar  
    22     9    35 1   
    23    10    11 ar  
    24    10    36 1   
    25    11    28 ar  
    26    11    37 1   
    27    12    24 ar  
    28    12    31 ar  
    29    12    55 1   
    30    13    14 1   
    31    13    15 2   
    32    14    16 1   
    33    14    38 1   
    34    15    39 1   
    35    16    26 ar  
    36    17    24 1   
    37    17    40 1   
    38    18    27 ar  
    39    18    41 1   
    40    19    23 1   
    41    19    42 1   
    42    20    43 1   
    43    22    44 1   
    44    23    45 1   
    45    23    46 1   
    46    24    29 ar  
    47    25    47 1   
    48    26    30 ar  
    49    26    48 1   
    50    27    30 ar  
    51    28    49 1   
    52    29    32 ar  
    53    29    50 1   
    54    30    51 1   
    55    31    33 ar  
    56    31    52 1   
    57    32    33 ar  
    58    32    53 1   
    59    33    54 1   
@<TRIPOS>SUBSTRUCTURE
     1 7XD         1 TEMP              0 ****  ****    0 ROOT
