@<TRIPOS>MOLECULE
7XD
   55    59     1     0     0
SMALL
No Charge or Current Charge


@<TRIPOS>ATOM
      1 C4           3.6460    -0.9140     0.4420 ca         1 7XD      -0.071800
      2 C5           2.6790     0.1260     0.4270 ca         1 7XD       0.179100
      3 C6           1.3090    -0.1500     0.6920 cp         1 7XD      -0.136000
      4 C7           7.0200     0.0300    -0.8440 ca         1 7XD      -0.165800
      5 C8          -5.3680     0.6650    -0.9110 c          1 7XD       0.661100
      6 C10          0.2710     0.9250     0.7000 cp         1 7XD      -0.054000
      7 C17         -1.8660     1.8210    -0.1250 ca         1 7XD      -0.118300
      8 C20          3.2270    -2.2290     0.7330 ca         1 7XD      -0.071000
      9 C21          0.9250    -1.4850     0.9540 ca         1 7XD      -0.052000
     10 C22          0.3890     2.0540     1.5460 ca         1 7XD      -0.103000
     11 C24         -0.5980     3.0540     1.5520 ca         1 7XD      -0.112000
     12 C28         -8.2850    -0.4030    -1.3750 ca         1 7XD      -0.153000
     13 C1           5.0730    -0.6850     0.1780 cc         1 7XD      -0.003300
     14 N2           6.1830    -1.3780     0.6990 na         1 7XD      -0.221700
     15 C3           5.5830     0.1640    -0.7950 cd         1 7XD      -0.179200
     16 C9           7.3370    -0.9180     0.0840 ca         1 7XD      -0.018200
     17 N11         -6.1960    -0.0400    -0.0530 ns         1 7XD      -0.164000
     18 C12          8.0140     0.6490    -1.6190 ca         1 7XD       0.394900
     19 N13         -4.1530     0.9560    -0.3440 ns         1 7XD      -0.533900
     20 C14         -0.8750     0.8210    -0.1240 ca         1 7XD      -0.080000
     21 O15         -5.6490     1.0080    -2.0510 o          1 7XD      -0.624100
     22 O16          3.0520     1.4130     0.1590 oh         1 7XD      -0.526100
     23 C18         -3.0870     1.6890    -1.0210 c3         1 7XD       0.170300
     24 C19         -7.5160    -0.5480    -0.1980 ca         1 7XD      -0.003000
     25 C23          1.8760    -2.5130     0.9800 ca         1 7XD      -0.146000
     26 C25          8.6720    -1.2840     0.2750 ca         1 7XD      -0.183000
     27 N26          9.3240     0.3180    -1.4570 nb         1 7XD      -0.695000
     28 C27         -1.7220     2.9400     0.7180 ca         1 7XD      -0.088000
     29 C29         -8.0750    -1.2320     0.8990 ca         1 7XD      -0.153000
     30 C30          9.6360    -0.6300    -0.5260 ca         1 7XD       0.343900
     31 C31         -9.5860    -0.9330    -1.4440 ca         1 7XD      -0.082500
     32 C32         -9.3740    -1.7620     0.8300 ca         1 7XD      -0.082500
     33 C33        -10.1310    -1.6130    -0.3430 ca         1 7XD      -0.139000
     34 H1           3.9490    -3.0420     0.7490 ha         1 7XD       0.113000
     35 H2          -0.1180    -1.7170     1.1560 ha         1 7XD       0.117000
     36 H3           1.2430     2.1450     2.2140 ha         1 7XD       0.124000
     37 H4          -0.4950     3.9150     2.2090 ha         1 7XD       0.122000
     38 H6           6.1460    -2.1010     1.4080 hn         1 7XD       0.349000
     39 H7           4.9870     0.7990    -1.4460 ha         1 7XD       0.217000
     40 H8          -5.7870    -0.2320     0.8520 hn         1 7XD       0.142000
     41 H9           7.7720     1.4060    -2.3650 h4         1 7XD       0.019100
     42 H10         -3.9910     0.6410     0.6040 hn         1 7XD       0.315500
     43 H11         -0.9870    -0.0450    -0.7730 ha         1 7XD       0.125000
     44 H12          2.2340     1.9520     0.1370 ho         1 7XD       0.476000
     45 H13         -3.4570     2.6850    -1.2990 h1         1 7XD       0.060700
     46 H14         -2.8160     1.1580    -1.9440 h1         1 7XD       0.060700
     47 H15          1.5650    -3.5340     1.1920 ha         1 7XD       0.122000
     48 H16          8.9640    -2.0350     1.0020 ha         1 7XD       0.121000
     49 H17         -2.4830     3.7170     0.7310 ha         1 7XD       0.122000
     50 H18         -7.4990    -1.3550     1.8140 ha         1 7XD       0.125500
     51 H19         10.6930    -0.8720    -0.4220 h4         1 7XD       0.015100
     52 H20        -10.1720    -0.8170    -2.3540 ha         1 7XD       0.112500
     53 H21         -9.7940    -2.2890     1.6850 ha         1 7XD       0.112500
     54 H22        -11.1370    -2.0220    -0.3990 ha         1 7XD       0.115000
     55 H5          -7.8970     0.1160    -2.2440 ha         1 7XD       0.125500
@<TRIPOS>BOND
     1     1     2 ar  
     2     1     8 ar  
     3     1    13 1   
     4     2     3 ar  
     5     2    22 1   
     6     3     6 1   
     7     3     9 ar  
     8     4    15 1   
     9     4    16 ar  
    10     4    18 ar  
    11     5    17 1   
    12     5    19 1   
    13     5    21 2   
    14     6    10 ar  
    15     6    20 ar  
    16     7    20 ar  
    17     7    23 1   
    18     7    28 ar  
    19     8    25 ar  
    20     8    34 1   
    21     9    25 ar  
    22     9    35 1   
    23    10    11 ar  
    24    10    36 1   
    25    11    28 ar  
    26    11    37 1   
    27    12    24 ar  
    28    12    31 ar  
    29    12    55 1   
    30    13    14 1   
    31    13    15 2   
    32    14    16 1   
    33    14    38 1   
    34    15    39 1   
    35    16    26 ar  
    36    17    24 1   
    37    17    40 1   
    38    18    27 ar  
    39    18    41 1   
    40    19    23 1   
    41    19    42 1   
    42    20    43 1   
    43    22    44 1   
    44    23    45 1   
    45    23    46 1   
    46    24    29 ar  
    47    25    47 1   
    48    26    30 ar  
    49    26    48 1   
    50    27    30 ar  
    51    28    49 1   
    52    29    32 ar  
    53    29    50 1   
    54    30    51 1   
    55    31    33 ar  
    56    31    52 1   
    57    32    33 ar  
    58    32    53 1   
    59    33    54 1   
@<TRIPOS>SUBSTRUCTURE
     1 7XD         1 TEMP              0 ****  ****    0 ROOT
