@<TRIPOS>MOLECULE
7XE
   35    37     1     0     0
SMALL
No Charge or Current Charge


@<TRIPOS>ATOM
      1 C01         -8.6110     3.5410    11.1350 c3         1 7XE       0.098300
      2 C04         -8.2250     2.3940    14.5340 cc         1 7XE       0.316500
      3 C05         -7.1540     1.4130    14.4950 cc         1 7XE       0.147400
      4 C07         -6.9530     1.0350    17.0200 ca         1 7XE       0.281000
      5 C08         -6.9630     2.3530    17.5070 ca         1 7XE      -0.137000
      6 C09         -7.1520     2.6090    18.8790 ca         1 7XE      -0.039300
      7 C10         -7.1860     4.0550    19.3840 c6         1 7XE      -0.031100
      8 C11         -7.0780     4.1620    20.9230 c6         1 7XE       0.157800
      9 C13         -7.5260     1.7760    21.2790 c6         1 7XE       0.204100
     10 C14         -7.3340     1.5300    19.7750 ca         1 7XE      -0.083300
     11 C15         -7.3050     0.2110    19.2860 ca         1 7XE      -0.086000
     12 C16         -7.1110    -0.0330    17.9150 ca         1 7XE      -0.135000
     13 C17         -6.5770     1.1400    13.2750 cd         1 7XE      -0.140200
     14 C19         -7.0350     1.8480    12.0540 c          1 7XE       0.564200
     15 N02         -8.0840     2.7810    12.2890 n          1 7XE      -0.133800
     16 N03         -8.7120     3.0860    13.5020 nd         1 7XE      -0.399300
     17 N12         -7.9490     3.1640    21.5800 n7         1 7XE      -0.855400
     18 O20         -6.5590     1.6540    10.9400 o          1 7XE      -0.530000
     19 Cl18        -5.2920    -0.0300    13.0780 cl         1 7XE      -0.157000
     20 H1          -9.4090     4.2260    11.4510 h1         1 7XE       0.057700
     21 H2          -7.8040     4.1270    10.6790 h1         1 7XE       0.057700
     22 H3          -9.0170     2.8460    10.3900 h1         1 7XE       0.057700
     23 H4          -8.7290     2.6300    15.4600 h4         1 7XE       0.057800
     24 H5          -6.8100     3.1830    16.8240 ha         1 7XE       0.124000
     25 H6          -6.3790     4.6390    18.9220 hc         1 7XE       0.058700
     26 H7          -8.1270     4.5190    19.0600 hc         1 7XE       0.058700
     27 H8          -6.0350     3.9950    21.2320 h1         1 7XE       0.035200
     28 H9          -7.3620     5.1760    21.2420 h1         1 7XE       0.035200
     29 H10         -8.2740     1.0740    21.6760 h1         1 7XE       0.041200
     30 H11         -6.5740     1.5670    21.7910 h1         1 7XE       0.041200
     31 H12         -7.4310    -0.6270    19.9690 ha         1 7XE       0.116000
     32 H13         -7.0940    -1.0570    17.5500 ha         1 7XE       0.121000
     33 H14         -6.2510    -0.1050    15.4810 hn         1 7XE       0.514000
     34 H15         -7.9130     3.3020    22.5980 hn         1 7XE       0.416000
     35 N06         -6.7530     0.7680    15.6620 nu         1 7XE      -0.834000
@<TRIPOS>BOND
     1     1    15 1   
     2     1    20 1   
     3     1    21 1   
     4     1    22 1   
     5     2     3 1   
     6     2    16 2   
     7     2    23 1   
     8     3    13 2   
     9     3    35 1   
    10     4     5 ar  
    11     4    12 ar  
    12     4    35 1   
    13     5     6 ar  
    14     5    24 1   
    15     6     7 1   
    16     6    10 ar  
    17     7     8 1   
    18     7    25 1   
    19     7    26 1   
    20     8    17 1   
    21     8    27 1   
    22     8    28 1   
    23     9    10 1   
    24     9    17 1   
    25     9    29 1   
    26     9    30 1   
    27    10    11 ar  
    28    11    12 ar  
    29    11    31 1   
    30    12    32 1   
    31    13    14 1   
    32    13    19 1   
    33    14    15 1   
    34    14    18 2   
    35    15    16 1   
    36    17    34 1   
    37    33    35 1   
@<TRIPOS>SUBSTRUCTURE
     1 7XE         1 TEMP              0 ****  ****    0 ROOT
