@<TRIPOS>MOLECULE
7XE
   35    37     1     0     0
SMALL
bcc


@<TRIPOS>ATOM
      1 C01         -8.7000     3.4950    11.3360 c3         1 7XE       0.098300
      2 C04         -8.1450     2.3250    14.6480 cc         1 7XE       0.316500
      3 C05         -7.0490     1.4010    14.5670 cc         1 7XE       0.147400
      4 C07         -6.8710     1.0460    17.0020 ca         1 7XE       0.142600
      5 C08         -6.8460     2.3470    17.4870 ca         1 7XE      -0.155000
      6 C09         -7.1250     2.6210    18.8230 ca         1 7XE      -0.039300
      7 C10         -7.1170     4.0450    19.3160 c6         1 7XE      -0.031100
      8 C11         -7.0400     4.1110    20.8320 c6         1 7XE       0.157800
      9 C13         -7.6550     1.8270    21.1590 c6         1 7XE       0.204100
     10 C14         -7.3970     1.5690    19.6980 ca         1 7XE      -0.083300
     11 C15         -7.3830     0.2640    19.2100 ca         1 7XE      -0.104000
     12 C16         -7.1370    -0.0050    17.8770 ca         1 7XE      -0.153000
     13 C17         -6.5550     1.1920    13.3030 cd         1 7XE      -0.215800
     14 C19         -7.0650     1.8780    12.1520 c          1 7XE       0.706700
     15 N02         -8.1070     2.7470    12.4310 n          1 7XE      -0.200800
     16 N03         -8.6260     2.9440    13.6270 nd         1 7XE      -0.399300
     17 N12         -8.0300     3.2070    21.3860 n7         1 7XE      -0.800200
     18 O20         -6.6480     1.7480    11.0090 o          1 7XE      -0.605500
     19 CL18        -5.2640     0.0880    13.0300 cl         1 7XE      -0.081400
     20 H1          -9.4950     4.1070    11.7480 h1         1 7XE       0.057700
     21 H2          -7.9600     4.1380    10.8610 h1         1 7XE       0.057700
     22 H3          -9.1130     2.8230    10.5860 h1         1 7XE       0.057700
     23 H4          -8.6340     2.5260    15.5900 h4         1 7XE       0.057800
     24 H5          -6.5910     3.1670    16.8240 ha         1 7XE       0.142000
     25 H6          -6.2830     4.5910    18.8700 hc         1 7XE       0.058700
     26 H7          -8.0300     4.5440    18.9790 hc         1 7XE       0.058700
     27 H8          -6.0160     3.8730    21.1630 h1         1 7XE       0.035200
     28 H9          -7.2530     5.1260    21.1690 h1         1 7XE       0.035200
     29 H10         -8.4590     1.1740    21.5090 h1         1 7XE       0.041200
     30 H11         -6.7530     1.5350    21.7220 h1         1 7XE       0.041200
     31 H12         -7.5880    -0.5580    19.8860 ha         1 7XE       0.134000
     32 H13         -7.1530    -1.0240    17.5100 ha         1 7XE       0.139000
     33 H14         -5.9780    -0.0380    15.4910 hn         1 7XE       0.458800
     34 H15         -8.1240     3.3640    22.3810 hn         1 7XE       0.360800
     35 N06         -6.5810     0.7550    15.6570 nu         1 7XE      -0.640400
@<TRIPOS>BOND
     1     1    15 1   
     2     1    20 1   
     3     1    21 1   
     4     1    22 1   
     5     2     3 1   
     6     2    16 2   
     7     2    23 1   
     8     3    13 2   
     9     3    35 1   
    10     4     5 ar  
    11     4    12 ar  
    12     4    35 1   
    13     5     6 ar  
    14     5    24 1   
    15     6     7 1   
    16     6    10 ar  
    17     7     8 1   
    18     7    25 1   
    19     7    26 1   
    20     8    17 1   
    21     8    27 1   
    22     8    28 1   
    23     9    10 1   
    24     9    17 1   
    25     9    29 1   
    26     9    30 1   
    27    10    11 ar  
    28    11    12 ar  
    29    11    31 1   
    30    12    32 1   
    31    13    14 1   
    32    13    19 1   
    33    14    15 1   
    34    14    18 2   
    35    15    16 1   
    36    17    34 1   
    37    33    35 1   
@<TRIPOS>SUBSTRUCTURE
     1 7XE         1 TEMP              0 ****  ****    0 ROOT
