@<TRIPOS>MOLECULE
7XG
   62    65     1     0     0
SMALL
bcc


@<TRIPOS>ATOM
      1 C1          -4.3880     3.9340     0.3020 ca         1 7XG      -0.097000
      2 C2           0.9130     0.2980    -0.6640 ca         1 7XG      -0.130500
      3 C3           1.8760    -0.7400     1.2570 ca         1 7XG      -0.130500
      4 C4          -0.2850    -0.3480    -0.4130 ca         1 7XG      -0.117500
      5 C5           0.6710    -1.3810     1.5080 ca         1 7XG      -0.117500
      6 C6          -3.9730     3.3680    -0.8960 ca         1 7XG      -0.151000
      7 C7          -4.9450     3.1390     1.2890 ca         1 7XG      -0.176000
      8 C8           3.6280     1.5890    -1.2300 cc         1 7XG       0.328200
      9 C9           4.4490     0.7820     0.6340 cd         1 7XG      -0.104300
     10 C10          2.0240     0.1120     0.1630 ca         1 7XG       0.020000
     11 C11          3.2910     0.7830    -0.1190 cc         1 7XG      -0.215300
     12 C12         -0.4310    -1.2050     0.6780 ca         1 7XG      -0.081300
     13 C13         -4.1030     2.0020    -1.1310 ca         1 7XG      -0.025300
     14 C14         -4.6670     1.1820    -0.1420 ca         1 7XG      -0.122300
     15 C15         -5.0670     1.7850     1.0400 ca         1 7XG       0.138900
     16 C16          7.6170     0.7020    -0.3180 c          1 7XG       0.655100
     17 C17         -2.9240    -0.9510     1.0790 c5         1 7XG       0.164800
     18 C18         -3.5540    -2.3680    -0.5970 c5         1 7XG       0.156800
     19 C19         -1.7320    -1.9130     0.9470 c5         1 7XG      -0.016400
     20 C20         -2.1580    -2.8680    -0.2120 c5         1 7XG       0.173500
     21 C21         -3.6510     1.4210    -2.4380 c3         1 7XG      -0.052800
     22 C22         -2.6920    -5.1170    -0.8660 c3         1 7XG       0.147100
     23 C23         -0.8030    -4.7110     0.5040 c3         1 7XG       0.147100
     24 C24         -4.8000    -0.3040    -0.3520 c3         1 7XG       0.223100
     25 N26          4.8650     2.0320    -1.1550 nd         1 7XG      -0.523800
     26 N27          5.3430     1.5460    -0.0130 na         1 7XG       0.119400
     27 N28         -3.5190    -0.9680    -0.2390 n3         1 7XG      -0.725600
     28 N29          8.9160     1.0220    -0.3050 nt         1 7XG      -0.677000
     29 N30         -2.1430    -4.2680     0.1750 n3         1 7XG      -0.708600
     30 O31          7.1670    -0.3330    -0.7750 o          1 7XG      -0.572100
     31 F32         -5.6000     1.0180     2.0110 f          1 7XG      -0.149900
     32 H1          -4.2780     4.9980     0.4680 ha         1 7XG       0.134000
     33 H2           0.9770     0.9570    -1.5210 ha         1 7XG       0.126000
     34 H3           2.7090    -0.9190     1.9270 ha         1 7XG       0.126000
     35 H4          -1.1250    -0.1790    -1.0770 ha         1 7XG       0.135500
     36 H5           0.5980    -2.0370     2.3680 ha         1 7XG       0.135500
     37 H6          -3.5380     3.9970    -1.6630 ha         1 7XG       0.134000
     38 H7          -5.2760     3.5530     2.2320 ha         1 7XG       0.149000
     39 H8           3.0090     1.8610    -2.0720 h4         1 7XG       0.038100
     40 H9           4.6900     0.3130     1.5750 h4         1 7XG       0.172000
     41 H10         -3.6200    -1.3340     1.8450 h1         1 7XG       0.047700
     42 H11         -2.6250     0.0550     1.3780 h1         1 7XG       0.047700
     43 H12         -3.7800    -2.4920    -1.6570 h1         1 7XG       0.042700
     44 H13         -4.3180    -2.9210    -0.0210 h1         1 7XG       0.042700
     45 H14         -1.6360    -2.4830     1.8720 hc         1 7XG       0.068700
     46 H15         -1.4820    -2.7060    -1.0700 h1         1 7XG       0.040700
     47 H16         -2.9250     0.6240    -2.2850 hc         1 7XG       0.048700
     48 H17         -4.4870     0.9860    -2.9910 hc         1 7XG       0.048700
     49 H18         -3.1990     2.1850    -3.0680 hc         1 7XG       0.048700
     50 H19         -2.1240    -5.0690    -1.8080 h1         1 7XG       0.031533
     51 H20         -2.6850    -6.1550    -0.5300 h1         1 7XG       0.031533
     52 H21         -3.7260    -4.8530    -1.0830 h1         1 7XG       0.031533
     53 H22         -0.0950    -4.5940    -0.3310 h1         1 7XG       0.031533
     54 H23         -0.4050    -4.1580     1.3540 h1         1 7XG       0.031533
     55 H24         -0.8220    -5.7650     0.7820 h1         1 7XG       0.031533
     56 H25         -5.5420    -0.7320     0.3370 h1         1 7XG       0.043700
     57 H26         -5.1830    -0.4870    -1.3600 h1         1 7XG       0.043700
     58 H27          6.8250     1.6800     1.4170 h1         1 7XG       0.079200
     59 H28          7.0100     2.7580     0.0430 h1         1 7XG       0.079200
     60 H30          9.2500     1.8860     0.0870 hn         1 7XG       0.317000
     61 H31          9.6060     0.3680    -0.6370 hn         1 7XG       0.317000
     62 C25          6.7170     1.7490     0.3330 c3         1 7XG      -0.033700
@<TRIPOS>BOND
     1     1     6 ar  
     2     1     7 ar  
     3     1    32 1   
     4     2     4 ar  
     5     2    10 ar  
     6     2    33 1   
     7     3     5 ar  
     8     3    10 ar  
     9     3    34 1   
    10     4    12 ar  
    11     4    35 1   
    12     5    12 ar  
    13     5    36 1   
    14     6    13 ar  
    15     6    37 1   
    16     7    15 ar  
    17     7    38 1   
    18     8    11 1   
    19     8    25 2   
    20     8    39 1   
    21     9    11 2   
    22     9    26 1   
    23     9    40 1   
    24    10    11 1   
    25    12    19 1   
    26    13    14 ar  
    27    13    21 1   
    28    14    15 ar  
    29    14    24 1   
    30    15    31 1   
    31    16    28 1   
    32    16    30 2   
    33    16    62 1   
    34    17    19 1   
    35    17    27 1   
    36    17    41 1   
    37    17    42 1   
    38    18    20 1   
    39    18    27 1   
    40    18    43 1   
    41    18    44 1   
    42    19    20 1   
    43    19    45 1   
    44    20    29 1   
    45    20    46 1   
    46    21    47 1   
    47    21    48 1   
    48    21    49 1   
    49    22    29 1   
    50    22    50 1   
    51    22    51 1   
    52    22    52 1   
    53    23    29 1   
    54    23    53 1   
    55    23    54 1   
    56    23    55 1   
    57    24    27 1   
    58    24    56 1   
    59    24    57 1   
    60    25    26 1   
    61    26    62 1   
    62    28    60 1   
    63    28    61 1   
    64    58    62 1   
    65    59    62 1   
@<TRIPOS>SUBSTRUCTURE
     1 7XG         1 TEMP              0 ****  ****    0 ROOT
