@<TRIPOS>MOLECULE
7XG
   62    65     1     0     0
SMALL
No Charge or Current Charge


@<TRIPOS>ATOM
      1 C1          -4.5140     4.0220     0.2310 ca         1 7XG      -0.079000
      2 C2           0.9310     0.3220    -0.7400 ca         1 7XG      -0.112500
      3 C3           1.9450    -0.7530     1.1780 ca         1 7XG      -0.112500
      4 C4          -0.2830    -0.3280    -0.4630 ca         1 7XG      -0.099500
      5 C5           0.7290    -1.4030     1.4540 ca         1 7XG      -0.099500
      6 C6          -4.2190     3.4240    -1.0040 ca         1 7XG      -0.133000
      7 C7          -4.9350     3.2270     1.3060 ca         1 7XG      -0.158000
      8 C8           3.6290     1.7060    -1.2760 cc         1 7XG       0.262900
      9 C9           4.4590     0.6720     0.5030 cd         1 7XG      -0.137000
     10 C10          2.0620     0.1190     0.0750 ca         1 7XG       0.020000
     11 C11          3.3200     0.8110    -0.2370 cc         1 7XG      -0.150000
     12 C12         -0.4000    -1.2040     0.6380 ca         1 7XG      -0.081300
     13 C13         -4.3410     2.0300    -1.1790 ca         1 7XG      -0.025300
     14 C14         -4.7690     1.2230    -0.0930 ca         1 7XG      -0.122300
     15 C15         -5.0610     1.8390     1.1450 ca         1 7XG       0.174000
     16 C16          7.7350     0.5620    -0.0650 c          1 7XG       0.588100
     17 C17         -2.8510    -0.8520     1.0820 c5         1 7XG       0.164800
     18 C18         -3.6520    -2.4570    -0.3920 c5         1 7XG       0.156800
     19 C19         -1.7170    -1.9280     0.9700 c5         1 7XG      -0.016400
     20 C20         -2.1330    -2.8050    -0.2720 c5         1 7XG       0.173500
     21 C21         -4.0060     1.4240    -2.5390 c3         1 7XG      -0.052800
     22 C22         -2.5680    -5.1930    -0.9370 c3         1 7XG       0.147100
     23 C23         -0.5650    -4.6710     0.3460 c3         1 7XG       0.147100
     24 C24         -4.9100    -0.2940    -0.2400 c3         1 7XG       0.223100
     25 N26          4.8720     2.1440    -1.2500 nd         1 7XG      -0.523800
     26 N27          5.3950     1.4910    -0.1400 na         1 7XG       0.140800
     27 N28         -3.6110    -0.9940    -0.1860 n3         1 7XG      -0.725600
     28 N29          9.0470     0.7900     0.1750 nt         1 7XG      -0.610000
     29 N30         -1.9640    -4.2710     0.0570 n3         1 7XG      -0.708600
     30 O31          7.3810    -0.5140    -0.5200 o          1 7XG      -0.572100
     31 F32         -5.4660     1.1000     2.2030 f          1 7XG      -0.185000
     32 H1          -4.4150     5.0990     0.3530 ha         1 7XG       0.116000
     33 H2           0.9830     0.9890    -1.5960 ha         1 7XG       0.108000
     34 H3           2.7900    -0.9380     1.8340 ha         1 7XG       0.108000
     35 H4          -1.1380    -0.1460    -1.1100 ha         1 7XG       0.117500
     36 H5           0.6680    -2.0670     2.3140 ha         1 7XG       0.117500
     37 H6          -3.8920     4.0510    -1.8310 ha         1 7XG       0.116000
     38 H7          -5.1640     3.6830     2.2660 ha         1 7XG       0.131000
     39 H8           2.9740     2.0580    -2.0600 h4         1 7XG       0.038100
     40 H9           4.6910     0.0940     1.3880 h4         1 7XG       0.154000
     41 H10         -3.4940    -1.0760     1.9450 h1         1 7XG       0.047700
     42 H11         -2.4600     0.1650     1.2230 h1         1 7XG       0.047700
     43 H12         -4.0590    -2.7260    -1.3760 h1         1 7XG       0.042700
     44 H13         -4.2510    -2.9580     0.3830 h1         1 7XG       0.042700
     45 H14         -1.6640    -2.5040     1.9000 hc         1 7XG       0.068700
     46 H15         -1.5970    -2.5230    -1.1890 h1         1 7XG       0.040700
     47 H16         -3.2220     0.6630    -2.4530 hc         1 7XG       0.048700
     48 H17         -4.8870     0.9530    -2.9890 hc         1 7XG       0.048700
     49 H18         -3.6450     2.1810    -3.2450 hc         1 7XG       0.048700
     50 H19         -2.1020    -5.0630    -1.9230 h1         1 7XG       0.031533
     51 H20         -2.4330    -6.2390    -0.6290 h1         1 7XG       0.031533
     52 H21         -3.6470    -5.0220    -1.0400 h1         1 7XG       0.031533
     53 H22          0.0800    -4.4870    -0.5240 h1         1 7XG       0.031533
     54 H23         -0.1550    -4.1160     1.1990 h1         1 7XG       0.031533
     55 H24         -0.5080    -5.7390     0.5940 h1         1 7XG       0.031533
     56 H25         -5.5770    -0.6840     0.5410 h1         1 7XG       0.043700
     57 H26         -5.4060    -0.5100    -1.1950 h1         1 7XG       0.043700
     58 H27          6.8140     1.8690     1.3620 h1         1 7XG       0.079200
     59 H28          7.1660     2.6240    -0.2050 h1         1 7XG       0.079200
     60 H30          9.3510     1.6760     0.5540 hn         1 7XG       0.317000
     61 H31          9.7190     0.0650    -0.0290 hn         1 7XG       0.317000
     62 C25          6.7870     1.7160     0.2770 c3         1 7XG      -0.004400
@<TRIPOS>BOND
     1     1     6 ar  
     2     1     7 ar  
     3     1    32 1   
     4     2     4 ar  
     5     2    10 ar  
     6     2    33 1   
     7     3     5 ar  
     8     3    10 ar  
     9     3    34 1   
    10     4    12 ar  
    11     4    35 1   
    12     5    12 ar  
    13     5    36 1   
    14     6    13 ar  
    15     6    37 1   
    16     7    15 ar  
    17     7    38 1   
    18     8    11 1   
    19     8    25 2   
    20     8    39 1   
    21     9    11 2   
    22     9    26 1   
    23     9    40 1   
    24    10    11 1   
    25    12    19 1   
    26    13    14 ar  
    27    13    21 1   
    28    14    15 ar  
    29    14    24 1   
    30    15    31 1   
    31    16    28 1   
    32    16    30 2   
    33    16    62 1   
    34    17    19 1   
    35    17    27 1   
    36    17    41 1   
    37    17    42 1   
    38    18    20 1   
    39    18    27 1   
    40    18    43 1   
    41    18    44 1   
    42    19    20 1   
    43    19    45 1   
    44    20    29 1   
    45    20    46 1   
    46    21    47 1   
    47    21    48 1   
    48    21    49 1   
    49    22    29 1   
    50    22    50 1   
    51    22    51 1   
    52    22    52 1   
    53    23    29 1   
    54    23    53 1   
    55    23    54 1   
    56    23    55 1   
    57    24    27 1   
    58    24    56 1   
    59    24    57 1   
    60    25    26 1   
    61    26    62 1   
    62    28    60 1   
    63    28    61 1   
    64    58    62 1   
    65    59    62 1   
@<TRIPOS>SUBSTRUCTURE
     1 7XG         1 TEMP              0 ****  ****    0 ROOT
