@<TRIPOS>MOLECULE
7XH
   78    82     1     0     0
SMALL
bcc


@<TRIPOS>ATOM
      1 C10         -7.8360   -29.9270    23.7200 ca         1 7XH      -0.003700
      2 C13         -9.5580   -30.3790    22.1020 ca         1 7XH      -0.423800
      3 C20        -11.3920   -34.3460    21.4460 ca         1 7XH      -0.297300
      4 C22        -10.9620   -35.5210    22.0270 ca         1 7XH       0.430200
      5 C26         -9.1280   -33.5930    21.5370 ca         1 7XH      -0.278300
      6 C28         -7.4170   -35.1040    22.5410 cp         1 7XH      -0.186500
      7 C01        -12.7600   -30.3810    23.8420 c3         1 7XH       0.142700
      8 O05        -11.7930   -30.4320    22.7990 os         1 7XH      -0.449100
      9 C06        -10.5160   -30.2500    23.1120 ca         1 7XH       0.708600
     10 N07        -10.1610   -29.9790    24.3470 nb         1 7XH      -0.746000
     11 C08         -8.8800   -29.8320    24.6460 ca         1 7XH       0.470200
     12 C11         -8.2200   -30.1960    22.4050 ca         1 7XH      -0.022000
     13 S14        -10.0410   -30.7610    20.4470 sy         1 7XH       1.343200
     14 O15         -8.8300   -31.0150    19.6890 o          1 7XH      -0.600300
     15 O16        -11.0020   -29.7950    19.9580 o          1 7XH      -0.600300
     16 N17        -10.8890   -32.1830    20.5700 nu         1 7XH      -0.711500
     17 C19        -10.4530   -33.3490    21.1820 ca         1 7XH       0.219600
     18 N24         -9.7050   -35.7590    22.3830 nb         1 7XH      -0.681000
     19 C25         -8.8120   -34.8010    22.1510 cp         1 7XH       0.504800
     20 C29         -6.8420   -36.3310    22.2180 ca         1 7XH      -0.066000
     21 C31         -5.5270   -36.6210    22.5460 ca         1 7XH      -0.151000
     22 C33         -4.7480   -35.6980    23.2360 ca         1 7XH      -0.049300
     23 C34         -3.3220   -36.0050    23.6190 c3         1 7XH       0.215100
     24 N37         -2.4790   -34.8360    23.5340 n3         1 7XH      -0.731600
     25 C38         -1.2150   -34.9890    24.2200 c6         1 7XH       0.165300
     26 C41         -0.4410   -33.6830    24.1960 c6         1 7XH       0.164300
     27 N44         -0.1930   -33.2300    22.8370 n3         1 7XH      -0.716600
     28 C45         -1.4600   -33.1200    22.1340 c6         1 7XH       0.164300
     29 C48         -2.2360   -34.4220    22.1680 c6         1 7XH       0.165300
     30 C51          0.5690   -31.9770    22.8000 c3         1 7XH       0.184500
     31 C53          0.8330   -31.5290    21.3650 c3         1 7XH      -0.091100
     32 C57          1.9050   -32.1160    23.5260 c3         1 7XH      -0.091100
     33 C61         -5.3150   -34.4800    23.5960 ca         1 7XH      -0.158000
     34 C63         -6.6200   -34.2110    23.2470 ca         1 7XH       0.142900
     35 F64         -7.1420   -33.0330    23.6290 f          1 7XH      -0.142900
     36 N65         -6.5110   -29.8100    24.1210 nh         1 7XH      -0.641000
     37 C66         -5.4740   -30.0750    23.1430 c6         1 7XH       0.159300
     38 C69         -4.1440   -30.2770    23.8490 c6         1 7XH       0.125400
     39 O72         -3.8090   -29.1840    24.6690 os         1 7XH      -0.397600
     40 C73         -4.8090   -28.9640    25.6360 c6         1 7XH       0.125400
     41 C76         -6.1570   -28.6990    24.9950 c6         1 7XH       0.159300
     42 H1         -12.4370   -34.2130    21.1960 ha         1 7XH       0.144000
     43 H2         -11.6770   -36.3120    22.2230 h4         1 7XH       0.020100
     44 H3          -8.3380   -32.8920    21.3180 ha         1 7XH       0.161000
     45 H4         -13.7180   -30.5650    23.3630 h1         1 7XH       0.052700
     46 H5         -12.5770   -31.1480    24.5940 h1         1 7XH       0.052700
     47 H6         -12.7780   -29.4050    24.3260 h1         1 7XH       0.052700
     48 H7          -8.6690   -29.6430    25.6920 h4         1 7XH       0.026100
     49 H8          -7.4850   -30.2800    21.6160 ha         1 7XH       0.165000
     50 H9         -11.8920   -32.0610    20.4870 hn         1 7XH       0.460800
     51 H10         -7.4320   -37.0580    21.6740 ha         1 7XH       0.149000
     52 H11         -5.1000   -37.5720    22.2530 ha         1 7XH       0.136000
     53 H12         -2.9530   -36.8430    23.0060 h1         1 7XH       0.043200
     54 H13         -3.3100   -36.3590    24.6550 h1         1 7XH       0.043200
     55 H15         -1.3990   -35.2670    25.2610 h1         1 7XH       0.039700
     56 H16         -0.5980   -35.7860    23.7720 h1         1 7XH       0.039700
     57 H17          0.5040   -33.8520    24.7110 h1         1 7XH       0.037200
     58 H18         -0.9990   -32.9290    24.7790 h1         1 7XH       0.037200
     59 H20         -1.2880   -32.8680    21.0880 h1         1 7XH       0.037200
     60 H21         -2.0900   -32.3190    22.5610 h1         1 7XH       0.037200
     61 H22         -3.1870   -34.2720    21.6540 h1         1 7XH       0.039700
     62 H23         -1.6810   -35.1940    21.6070 h1         1 7XH       0.039700
     63 H24         -0.0090   -31.1780    23.3010 h1         1 7XH       0.020700
     64 H25          1.5030   -30.6690    21.3660 hc         1 7XH       0.038033
     65 H26          1.3110   -32.3260    20.7930 hc         1 7XH       0.038033
     66 H27         -0.0690   -31.2240    20.8370 hc         1 7XH       0.038033
     67 H28          1.7970   -32.2570    24.6010 hc         1 7XH       0.038033
     68 H29          2.4730   -32.9590    23.1270 hc         1 7XH       0.038033
     69 H30          2.4990   -31.2140    23.3840 hc         1 7XH       0.038033
     70 H31         -4.7360   -33.7420    24.1360 ha         1 7XH       0.164000
     71 H32         -5.6990   -30.9900    22.5940 h1         1 7XH       0.048950
     72 H33         -5.3860   -29.2610    22.4080 h1         1 7XH       0.048950
     73 H34         -4.1860   -31.2040    24.4380 h1         1 7XH       0.055450
     74 H35         -3.3520   -30.3880    23.1080 h1         1 7XH       0.055450
     75 H36         -4.5080   -28.1010    26.2320 h1         1 7XH       0.055450
     76 H37         -4.8930   -29.8300    26.3080 h1         1 7XH       0.055450
     77 H38         -6.1280   -27.7540    24.4330 h1         1 7XH       0.048950
     78 H39         -6.8920   -28.5820    25.7890 h1         1 7XH       0.048950
@<TRIPOS>BOND
     1     1    11 ar  
     2     1    12 ar  
     3     1    36 1   
     4     2     9 ar  
     5     2    12 ar  
     6     2    13 1   
     7     3     4 ar  
     8     3    17 ar  
     9     3    42 1   
    10     4    18 ar  
    11     4    43 1   
    12     5    17 ar  
    13     5    19 ar  
    14     5    44 1   
    15     6    19 1   
    16     6    20 ar  
    17     6    34 ar  
    18     7     8 1   
    19     7    45 1   
    20     7    46 1   
    21     7    47 1   
    22     8     9 1   
    23     9    10 ar  
    24    10    11 ar  
    25    11    48 1   
    26    12    49 1   
    27    13    14 2   
    28    13    15 2   
    29    13    16 1   
    30    16    17 1   
    31    16    50 1   
    32    18    19 ar  
    33    20    21 ar  
    34    20    51 1   
    35    21    22 ar  
    36    21    52 1   
    37    22    23 1   
    38    22    33 ar  
    39    23    24 1   
    40    23    53 1   
    41    23    54 1   
    42    24    25 1   
    43    24    29 1   
    44    25    26 1   
    45    25    55 1   
    46    25    56 1   
    47    26    27 1   
    48    26    57 1   
    49    26    58 1   
    50    27    28 1   
    51    27    30 1   
    52    28    29 1   
    53    28    59 1   
    54    28    60 1   
    55    29    61 1   
    56    29    62 1   
    57    30    31 1   
    58    30    32 1   
    59    30    63 1   
    60    31    64 1   
    61    31    65 1   
    62    31    66 1   
    63    32    67 1   
    64    32    68 1   
    65    32    69 1   
    66    33    34 ar  
    67    33    70 1   
    68    34    35 1   
    69    36    37 1   
    70    36    41 1   
    71    37    38 1   
    72    37    71 1   
    73    37    72 1   
    74    38    39 1   
    75    38    73 1   
    76    38    74 1   
    77    39    40 1   
    78    40    41 1   
    79    40    75 1   
    80    40    76 1   
    81    41    77 1   
    82    41    78 1   
@<TRIPOS>SUBSTRUCTURE
     1 7XH         1 TEMP              0 ****  ****    0 ROOT
