@<TRIPOS>MOLECULE
7XH
   78    82     1     0     0
SMALL
No Charge or Current Charge


@<TRIPOS>ATOM
      1 C10         -7.8290   -30.0680    23.8460 ca         1 7XH       0.200000
      2 C13         -9.5900   -30.3330    22.1840 ca         1 7XH      -0.358500
      3 C20        -11.3240   -34.3780    20.7800 ca         1 7XH      -0.214000
      4 C22        -10.8910   -35.6400    21.2090 ca         1 7XH       0.364900
      5 C26         -9.1740   -33.5240    21.3900 ca         1 7XH      -0.195000
      6 C28         -7.5060   -35.0480    22.4910 cp         1 7XH      -0.186500
      7 C01        -12.9000   -30.3890    23.9050 c3         1 7XH       0.165900
      8 O05        -11.8800   -30.4170    22.8860 os         1 7XH      -0.472300
      9 C06        -10.5480   -30.2810    23.1980 ca         1 7XH       0.643300
     10 N07        -10.2020   -30.1200    24.4920 nb         1 7XH      -0.746000
     11 C08         -8.8830   -30.0180    24.7970 ca         1 7XH       0.404900
     12 C11         -8.2160   -30.2230    22.5020 ca         1 7XH      -0.004000
     13 S14        -10.1010   -30.5570    20.5010 sy         1 7XH       1.201600
     14 O15         -8.9290   -30.7180    19.6390 o          1 7XH      -0.529500
     15 O16        -11.1820   -29.6280    20.1700 o          1 7XH      -0.529500
     16 N17        -10.8660   -32.0460    20.4350 nu         1 7XH      -0.905100
     17 C19        -10.4460   -33.2960    20.8620 ca         1 7XH       0.358000
     18 N24         -9.6610   -35.8560    21.7230 nb         1 7XH      -0.681000
     19 C25         -8.8250   -34.8060    21.8480 cp         1 7XH       0.439500
     20 C29         -6.6480   -36.0900    22.0560 ca         1 7XH      -0.048000
     21 C31         -5.3720   -36.2550    22.6250 ca         1 7XH      -0.133000
     22 C33         -4.9310   -35.3930    23.6470 ca         1 7XH      -0.049300
     23 C34         -3.5290   -35.5170    24.2360 c3         1 7XH       0.215100
     24 N37         -2.6410   -34.4050    23.8220 n3         1 7XH      -0.731600
     25 C38         -1.3620   -34.3710    24.5850 c6         1 7XH       0.165300
     26 C41         -0.4570   -33.1680    24.1700 c6         1 7XH       0.164300
     27 N44         -0.1420   -33.1440    22.7000 n3         1 7XH      -0.716600
     28 C45         -1.4290   -33.2170    21.9260 c6         1 7XH       0.164300
     29 C48         -2.3480   -34.4040    22.3570 c6         1 7XH       0.165300
     30 C51          0.7420   -32.0060    22.2920 c3         1 7XH       0.184500
     31 C53          1.0670   -32.0020    20.7750 c3         1 7XH      -0.091100
     32 C57          2.0720   -31.9530    23.0880 c3         1 7XH      -0.091100
     33 C61         -5.7910   -34.3830    24.1130 ca         1 7XH      -0.140000
     34 C63         -7.0570   -34.2120    23.5410 ca         1 7XH       0.178000
     35 F64         -7.8550   -33.2360    24.0270 f          1 7XH      -0.178000
     36 N65         -6.4490   -29.9780    24.2210 nh         1 7XH      -0.779400
     37 C66         -5.3620   -30.5960    23.3890 c6         1 7XH       0.159300
     38 C69         -4.0760   -30.8980    24.2170 c6         1 7XH       0.148600
     39 O72         -3.6570   -29.7300    24.9600 os         1 7XH      -0.444000
     40 C73         -4.6660   -29.2780    25.8920 c6         1 7XH       0.148600
     41 C76         -5.9780   -28.8930    25.1440 c6         1 7XH       0.159300
     42 H1         -12.3240   -34.2580    20.3770 ha         1 7XH       0.126000
     43 H2         -11.5480   -36.5060    21.1380 h4         1 7XH       0.020100
     44 H3          -8.4450   -32.7300    21.4680 ha         1 7XH       0.143000
     45 H4         -13.8930   -30.5120    23.4550 h1         1 7XH       0.052700
     46 H5         -12.7530   -31.2000    24.6300 h1         1 7XH       0.052700
     47 H6         -12.8890   -29.4330    24.4450 h1         1 7XH       0.052700
     48 H7          -8.6570   -29.9070    25.8560 h4         1 7XH       0.026100
     49 H8          -7.4600   -30.2550    21.7210 ha         1 7XH       0.147000
     50 H9         -11.8570   -31.8680    20.3560 hn         1 7XH       0.516000
     51 H10         -6.9660   -36.7520    21.2530 ha         1 7XH       0.131000
     52 H11         -4.7190   -37.0430    22.2560 ha         1 7XH       0.118000
     53 H12         -3.0930   -36.4830    23.9440 h1         1 7XH       0.043200
     54 H13         -3.6250   -35.5290    25.3300 h1         1 7XH       0.043200
     55 H15         -1.5660   -34.2980    25.6630 h1         1 7XH       0.039700
     56 H16         -0.8010   -35.3030    24.4260 h1         1 7XH       0.039700
     57 H17          0.4630   -33.2390    24.7670 h1         1 7XH       0.037200
     58 H18         -0.9600   -32.2340    24.4630 h1         1 7XH       0.037200
     59 H20         -1.2310   -33.3400    20.8520 h1         1 7XH       0.037200
     60 H21         -1.9900   -32.2790    22.0420 h1         1 7XH       0.037200
     61 H22         -3.2800   -34.3430    21.7780 h1         1 7XH       0.039700
     62 H23         -1.8550   -35.3460    22.0720 h1         1 7XH       0.039700
     63 H24          0.2150   -31.0640    22.5010 h1         1 7XH       0.020700
     64 H25          1.7920   -31.2160    20.5340 hc         1 7XH       0.038033
     65 H26          1.4920   -32.9650    20.4660 hc         1 7XH       0.038033
     66 H27          0.1740   -31.8030    20.1730 hc         1 7XH       0.038033
     67 H28          1.9000   -31.7150    24.1430 hc         1 7XH       0.038033
     68 H29          2.6020   -32.9100    23.0240 hc         1 7XH       0.038033
     69 H30          2.7310   -31.1710    22.6920 hc         1 7XH       0.038033
     70 H31         -5.4700   -33.7210    24.9120 ha         1 7XH       0.146000
     71 H32         -5.7110   -31.5400    22.9440 h1         1 7XH       0.048950
     72 H33         -5.0970   -29.9230    22.5610 h1         1 7XH       0.048950
     73 H34         -4.2670   -31.7210    24.9200 h1         1 7XH       0.055450
     74 H35         -3.2640   -31.2090    23.5470 h1         1 7XH       0.055450
     75 H36         -4.2840   -28.4090    26.4440 h1         1 7XH       0.055450
     76 H37         -4.8730   -30.0790    26.6170 h1         1 7XH       0.055450
     77 H38         -5.7980   -27.9730    24.5700 h1         1 7XH       0.048950
     78 H39         -6.7440   -28.6590    25.8960 h1         1 7XH       0.048950
@<TRIPOS>BOND
     1     1    11 ar  
     2     1    12 ar  
     3     1    36 1   
     4     2     9 ar  
     5     2    12 ar  
     6     2    13 1   
     7     3     4 ar  
     8     3    17 ar  
     9     3    42 1   
    10     4    18 ar  
    11     4    43 1   
    12     5    17 ar  
    13     5    19 ar  
    14     5    44 1   
    15     6    19 1   
    16     6    20 ar  
    17     6    34 ar  
    18     7     8 1   
    19     7    45 1   
    20     7    46 1   
    21     7    47 1   
    22     8     9 1   
    23     9    10 ar  
    24    10    11 ar  
    25    11    48 1   
    26    12    49 1   
    27    13    14 2   
    28    13    15 2   
    29    13    16 1   
    30    16    17 1   
    31    16    50 1   
    32    18    19 ar  
    33    20    21 ar  
    34    20    51 1   
    35    21    22 ar  
    36    21    52 1   
    37    22    23 1   
    38    22    33 ar  
    39    23    24 1   
    40    23    53 1   
    41    23    54 1   
    42    24    25 1   
    43    24    29 1   
    44    25    26 1   
    45    25    55 1   
    46    25    56 1   
    47    26    27 1   
    48    26    57 1   
    49    26    58 1   
    50    27    28 1   
    51    27    30 1   
    52    28    29 1   
    53    28    59 1   
    54    28    60 1   
    55    29    61 1   
    56    29    62 1   
    57    30    31 1   
    58    30    32 1   
    59    30    63 1   
    60    31    64 1   
    61    31    65 1   
    62    31    66 1   
    63    32    67 1   
    64    32    68 1   
    65    32    69 1   
    66    33    34 ar  
    67    33    70 1   
    68    34    35 1   
    69    36    37 1   
    70    36    41 1   
    71    37    38 1   
    72    37    71 1   
    73    37    72 1   
    74    38    39 1   
    75    38    73 1   
    76    38    74 1   
    77    39    40 1   
    78    40    41 1   
    79    40    75 1   
    80    40    76 1   
    81    41    77 1   
    82    41    78 1   
@<TRIPOS>SUBSTRUCTURE
     1 7XH         1 TEMP              0 ****  ****    0 ROOT
