@<TRIPOS>MOLECULE
7XI
   35    37     1     0     0
SMALL
bcc


@<TRIPOS>ATOM
      1 N1           0.9770    23.0350   -11.7840 nb         1 7XI      -0.819000
      2 C8           1.5500    21.1140    -7.8760 cc         1 7XI       0.401700
      3 C5           1.1410    22.3350    -9.5420 ca         1 7XI      -0.235200
      4 C6           0.8080    23.3250   -10.4860 ca         1 7XI       0.795200
      5 N3           1.8000    20.8420   -11.3420 nb         1 7XI      -0.735000
      6 C4           1.6250    21.1400   -10.0520 ca         1 7XI       0.462800
      7 C2           1.4480    21.8460   -12.1040 ca         1 7XI       0.812000
      8 N7           1.8880    20.3650    -8.9670 na         1 7XI      -0.243000
      9 N9           1.1020    22.2980    -8.1750 nd         1 7XI      -0.546100
     10 N10          0.3400    24.5220   -10.1470 nv         1 7XI      -0.946500
     11 CL1          1.6310    21.5770   -13.8110 cl         1 7XI      -0.138000
     12 C12          2.3750    18.9960    -8.9690 c3         1 7XI       0.103600
     13 C13          1.2690    17.9980    -9.1970 ca         1 7XI      -0.087300
     14 C14          1.0030    17.5220   -10.4710 ca         1 7XI      -0.124000
     15 C15         -0.0320    16.6120   -10.6610 ca         1 7XI      -0.096000
     16 C16         -0.7940    16.1770    -9.5930 ca         1 7XI      -0.140000
     17 C17         -0.5240    16.6530    -8.3090 ca         1 7XI       0.136100
     18 C18          0.5060    17.5660    -8.1130 ca         1 7XI      -0.200000
     19 O19         -1.3060    16.1640    -7.3240 os         1 7XI      -0.301900
     20 C20         -1.1120    16.6200    -6.0090 c3         1 7XI       0.077400
     21 C21         -2.0800    15.8880    -5.1180 c3         1 7XI       0.426900
     22 F22         -3.3620    16.0820    -5.5330 f          1 7XI      -0.233300
     23 F23         -1.8570    14.5460    -5.1690 f          1 7XI      -0.233300
     24 H1           1.6670    20.7220    -6.8760 h5         1 7XI       0.063800
     25 H2           0.1150    25.2020   -10.8530 hn         1 7XI       0.455800
     26 H3           0.2030    24.7710    -9.1820 hn         1 7XI       0.455800
     27 H4           2.8610    18.8260    -8.0090 h1         1 7XI       0.071700
     28 H5           3.1390    18.9100    -9.7420 h1         1 7XI       0.071700
     29 H6           1.5950    17.8580   -11.3120 ha         1 7XI       0.153000
     30 H7          -0.2450    16.2360   -11.6530 ha         1 7XI       0.141000
     31 H8          -1.5960    15.4650    -9.7410 ha         1 7XI       0.152000
     32 H9           0.7390    17.9490    -7.1270 ha         1 7XI       0.127000
     33 H10         -0.0960    16.4230    -5.6480 h1         1 7XI       0.053200
     34 H11         -1.2920    17.6970    -5.9180 h1         1 7XI       0.053200
     35 H12         -1.9910    16.2210    -4.0820 h2         1 7XI       0.062700
@<TRIPOS>BOND
     1     1     4 ar  
     2     1     7 ar  
     3     2     8 1   
     4     2     9 2   
     5     2    24 1   
     6     3     4 ar  
     7     3     6 ar  
     8     3     9 1   
     9     4    10 1   
    10     5     6 ar  
    11     5     7 ar  
    12     6     8 1   
    13     7    11 1   
    14     8    12 1   
    15    10    25 1   
    16    10    26 1   
    17    12    13 1   
    18    12    27 1   
    19    12    28 1   
    20    13    14 ar  
    21    13    18 ar  
    22    14    15 ar  
    23    14    29 1   
    24    15    16 ar  
    25    15    30 1   
    26    16    17 ar  
    27    16    31 1   
    28    17    18 ar  
    29    17    19 1   
    30    18    32 1   
    31    19    20 1   
    32    20    21 1   
    33    20    33 1   
    34    20    34 1   
    35    21    22 1   
    36    21    23 1   
    37    21    35 1   
@<TRIPOS>SUBSTRUCTURE
     1 7XI         1 TEMP              0 ****  ****    0 ROOT
