@<TRIPOS>MOLECULE
7XI
   35    37     1     0     0
SMALL
No Charge or Current Charge


@<TRIPOS>ATOM
      1 N1          -0.1710    22.8610   -10.9760 nb         1 7XI      -0.293000
      2 C8           2.3860    20.8660    -7.8340 cc         1 7XI       0.401700
      3 C5           1.1240    22.0450    -9.1300 ca         1 7XI      -0.104600
      4 C6           0.2910    23.0140    -9.7260 ca         1 7XI       0.466900
      5 N3           0.9990    20.7440   -11.1250 nb         1 7XI      -0.209000
      6 C4           1.4460    20.9330    -9.8680 ca         1 7XI       0.134500
      7 C2           0.2080    21.7280   -11.6130 ca         1 7XI       0.286000
      8 N7           2.2440    20.1910    -9.0480 na         1 7XI      -0.272300
      9 N9           1.7040    22.0290    -7.8530 nd         1 7XI      -0.546100
     10 N10         -0.0830    24.1510    -9.0810 nv         1 7XI      -1.056900
     11 Cl1         -0.3920    21.5110   -13.2490 cl         1 7XI      -0.138000
     12 C12          2.7730    18.8700    -9.4260 c3         1 7XI       0.132900
     13 C13          1.7140    17.7680    -9.4730 ca         1 7XI      -0.087300
     14 C14          1.7360    16.8230   -10.5180 ca         1 7XI      -0.106000
     15 C15          0.7690    15.8060   -10.5770 ca         1 7XI      -0.078000
     16 C16         -0.2280    15.7260    -9.5910 ca         1 7XI      -0.122000
     17 C17         -0.2620    16.6580    -8.5410 ca         1 7XI       0.136100
     18 C18          0.7130    17.6780    -8.4810 ca         1 7XI      -0.182000
     19 O19         -1.2640    16.5320    -7.6010 os         1 7XI      -0.325100
     20 C20         -1.3990    17.4460    -6.4920 c3         1 7XI       0.100600
     21 C21         -2.6200    17.0350    -5.6380 c3         1 7XI       0.184300
     22 F22         -3.7490    17.0570    -6.3850 f          1 7XI      -0.112000
     23 F23         -2.4660    15.7740    -5.1690 f          1 7XI      -0.112000
     24 H1           2.9700    20.4720    -7.0110 h5         1 7XI       0.063800
     25 H2          -0.4170    24.9290    -9.6440 hn         1 7XI       0.511000
     26 H3           0.4260    24.3880    -8.2330 hn         1 7XI       0.511000
     27 H4           3.5500    18.5830    -8.7070 h1         1 7XI       0.071700
     28 H5           3.2550    18.9610   -10.4080 h1         1 7XI       0.071700
     29 H6           2.5030    16.8770   -11.2880 ha         1 7XI       0.135000
     30 H7           0.7910    15.0810   -11.3880 ha         1 7XI       0.123000
     31 H8          -0.9770    14.9400    -9.6390 ha         1 7XI       0.134000
     32 H9           0.7050    18.4030    -7.6740 ha         1 7XI       0.109000
     33 H10         -0.5010    17.4280    -5.8620 h1         1 7XI       0.053200
     34 H11         -1.5460    18.4730    -6.8530 h1         1 7XI       0.053200
     35 H12         -2.7380    17.7200    -4.7910 h2         1 7XI       0.062700
@<TRIPOS>BOND
     1     1     4 ar  
     2     1     7 ar  
     3     2     8 1   
     4     2     9 2   
     5     2    24 1   
     6     3     4 ar  
     7     3     6 ar  
     8     3     9 1   
     9     4    10 1   
    10     5     6 ar  
    11     5     7 ar  
    12     6     8 1   
    13     7    11 1   
    14     8    12 1   
    15    10    25 1   
    16    10    26 1   
    17    12    13 1   
    18    12    27 1   
    19    12    28 1   
    20    13    14 ar  
    21    13    18 ar  
    22    14    15 ar  
    23    14    29 1   
    24    15    16 ar  
    25    15    30 1   
    26    16    17 ar  
    27    16    31 1   
    28    17    18 ar  
    29    17    19 1   
    30    18    32 1   
    31    19    20 1   
    32    20    21 1   
    33    20    33 1   
    34    20    34 1   
    35    21    22 1   
    36    21    23 1   
    37    21    35 1   
@<TRIPOS>SUBSTRUCTURE
     1 7XI         1 TEMP              0 ****  ****    0 ROOT
