@<TRIPOS>MOLECULE
7XJ
   38    40     1     0     0
SMALL
No Charge or Current Charge


@<TRIPOS>ATOM
      1 C4          -3.0430     0.6290     0.3380 ca         1 7XJ       0.050000
      2 C7          -3.2320    -1.7800     0.0700 ca         1 7XJ      -0.045000
      3 C10         -1.7050     0.5790    -0.0900 ca         1 7XJ      -0.153000
      4 C13         -1.8930    -1.8270    -0.3570 ca         1 7XJ      -0.181000
      5 C15         -4.9860     1.8480     1.1170 ca         1 7XJ       0.381900
      6 C17         -3.6460     1.8450     0.6960 ca         1 7XJ      -0.210000
      7 C20          6.4050    -0.8160     0.6280 ca         1 7XJ      -0.111000
      8 C21          5.3480     1.1920     1.5050 ca         1 7XJ      -0.111000
      9 C22          6.3080     0.1730     1.6220 ca         1 7XJ      -0.106000
     10 C1           1.2340     0.1350    -1.1010 c          1 7XJ       0.662100
     11 C2          -3.8140    -0.5440     0.4190 ca         1 7XJ      -0.157000
     12 C3          -5.1490    -0.4140     0.8570 ca         1 7XJ       0.622900
     13 N6          -5.7370     0.7270     1.1960 nb         1 7XJ      -0.768000
     14 N8           2.4000    -0.4540    -1.5270 ns         1 7XJ      -0.524900
     15 C9          -1.1180    -0.6550    -0.4440 ca         1 7XJ       0.019000
     16 O11          1.1290     1.3430    -0.9450 o          1 7XJ      -0.617100
     17 C14          3.6430     0.2680    -1.8040 c3         1 7XJ       0.161300
     18 C16          4.5790     0.2350    -0.6050 ca         1 7XJ      -0.117300
     19 C18          4.4860     1.2230     0.3950 ca         1 7XJ      -0.098000
     20 C19          5.5430    -0.7860    -0.4820 ca         1 7XJ      -0.098000
     21 H1          -3.8010    -2.7040     0.1300 ha         1 7XJ       0.108000
     22 H2          -1.1420     1.5050    -0.1380 ha         1 7XJ       0.155000
     23 H3          -5.8770    -2.2350     0.4010 hn         1 7XJ       0.471000
     24 H4          -6.9900    -1.1180     1.0900 hn         1 7XJ       0.471000
     25 H5          -1.4560    -2.7860    -0.6230 ha         1 7XJ       0.107000
     26 H6          -5.4750     2.7800     1.3990 h4         1 7XJ       0.014100
     27 H7          -3.0940     2.7790     0.6520 ha         1 7XJ       0.128000
     28 H9           5.2710     1.9570     2.2740 ha         1 7XJ       0.114000
     29 H10          6.9750     0.1490     2.4810 ha         1 7XJ       0.113000
     30 H12          2.4010    -1.4610    -1.6240 hn         1 7XJ       0.310500
     31 H13          4.1340    -0.1980    -2.6690 h1         1 7XJ       0.066200
     32 H14          3.4200     1.3080    -2.0770 h1         1 7XJ       0.066200
     33 H15          3.7430     2.0140     0.3130 ha         1 7XJ       0.115000
     34 H16          5.6230    -1.5570    -1.2460 ha         1 7XJ       0.115000
     35 N12         -6.0290    -1.4160     0.9760 nv         1 7XJ      -1.054900
     36 N5           0.2270    -0.7910    -0.8840 ns         1 7XJ      -0.163000
     37 H8           7.1470    -1.6060     0.7180 ha         1 7XJ       0.114000
     38 H11          0.4950    -1.7470    -1.0710 hn         1 7XJ       0.145000
@<TRIPOS>BOND
     1     1     3 ar  
     2     1     6 ar  
     3     1    11 ar  
     4     2     4 ar  
     5     2    11 ar  
     6     2    21 1   
     7     3    15 ar  
     8     3    22 1   
     9     4    15 ar  
    10     4    25 1   
    11     5     6 ar  
    12     5    13 ar  
    13     5    26 1   
    14     6    27 1   
    15     7     9 ar  
    16     7    20 ar  
    17     7    37 1   
    18     8     9 ar  
    19     8    19 ar  
    20     8    28 1   
    21     9    29 1   
    22    10    14 1   
    23    10    16 2   
    24    10    36 1   
    25    11    12 ar  
    26    12    13 ar  
    27    12    35 1   
    28    14    17 1   
    29    14    30 1   
    30    15    36 1   
    31    17    18 1   
    32    17    31 1   
    33    17    32 1   
    34    18    19 ar  
    35    18    20 ar  
    36    19    33 1   
    37    20    34 1   
    38    23    35 1   
    39    24    35 1   
    40    36    38 1   
@<TRIPOS>SUBSTRUCTURE
     1 7XJ         1 TEMP              0 ****  ****    0 ROOT
