@<TRIPOS>MOLECULE
7XJ
   38    40     1     0     0
SMALL
abcg2


@<TRIPOS>ATOM
      1 C4          -2.9950     0.7130     0.2380 ca         1 7XJ       0.050000
      2 C7          -3.2930    -1.6890     0.1950 ca         1 7XJ      -0.045000
      3 C10         -1.6570     0.5440    -0.1710 ca         1 7XJ      -0.153000
      4 C13         -1.9950    -1.8420    -0.1990 ca         1 7XJ      -0.181000
      5 C15         -4.8340     2.0870     0.8960 ca         1 7XJ       0.381900
      6 C17         -3.5360     1.9990     0.4930 ca         1 7XJ      -0.210000
      7 C20          6.8250     0.0720     0.2250 ca         1 7XJ      -0.111000
      8 C21          5.0440     0.5570     1.7580 ca         1 7XJ      -0.111000
      9 C22          6.4010     0.3940     1.5070 ca         1 7XJ      -0.106000
     10 C1           1.1760    -0.1400    -1.0640 c          1 7XJ       0.662100
     11 C2          -3.8360    -0.4070     0.4150 ca         1 7XJ      -0.157000
     12 C3          -5.1940    -0.1730     0.8180 ca         1 7XJ       0.622900
     13 N6          -5.6610     1.0340     1.0530 nb         1 7XJ      -0.768000
     14 N8           2.3430    -0.7650    -1.3470 ns         1 7XJ      -0.524900
     15 C9          -1.1490    -0.7200    -0.3940 ca         1 7XJ       0.019000
     16 O11          1.0480     1.0750    -1.0640 o          1 7XJ      -0.617100
     17 C14          3.5500    -0.0560    -1.6910 c3         1 7XJ       0.161300
     18 C16          4.5360     0.0800    -0.5540 ca         1 7XJ      -0.117300
     19 C18          4.1190     0.4030     0.7360 ca         1 7XJ      -0.098000
     20 C19          5.8960    -0.0870    -0.7950 ca         1 7XJ      -0.098000
     21 H1          -3.8880    -2.5810     0.3420 ha         1 7XJ       0.108000
     22 H2          -1.0460     1.4220    -0.3000 ha         1 7XJ       0.155000
     23 H3          -5.8860    -2.0760     0.5160 hn         1 7XJ       0.471000
     24 H4          -7.0160    -0.9740     1.1050 hn         1 7XJ       0.471000
     25 H5          -1.6020    -2.8390    -0.3610 ha         1 7XJ       0.107000
     26 H6          -5.2730     3.0570     1.1080 h4         1 7XJ       0.014100
     27 H7          -2.9290     2.8860     0.3730 ha         1 7XJ       0.128000
     28 H9           4.7040     0.8080     2.7550 ha         1 7XJ       0.114000
     29 H10          7.1220     0.5140     2.3050 ha         1 7XJ       0.113000
     30 H12          2.4160    -1.7640    -1.2410 hn         1 7XJ       0.310500
     31 H13          4.0280    -0.5730    -2.5250 h1         1 7XJ       0.066200
     32 H14          3.2730     0.9320    -2.0590 h1         1 7XJ       0.066200
     33 H15          3.0670     0.5400     0.9510 ha         1 7XJ       0.115000
     34 H16          6.2340    -0.3500    -1.7910 ha         1 7XJ       0.115000
     35 N12         -6.0430    -1.2180     1.0160 nv         1 7XJ      -1.054900
     36 N5           0.1480    -1.0110    -0.7870 ns         1 7XJ      -0.163000
     37 H8           7.8790    -0.0630     0.0180 ha         1 7XJ       0.114000
     38 H11          0.3460    -1.9950    -0.8870 hn         1 7XJ       0.145000
@<TRIPOS>BOND
     1     1     3 ar  
     2     1     6 ar  
     3     1    11 ar  
     4     2     4 ar  
     5     2    11 ar  
     6     2    21 1   
     7     3    15 ar  
     8     3    22 1   
     9     4    15 ar  
    10     4    25 1   
    11     5     6 ar  
    12     5    13 ar  
    13     5    26 1   
    14     6    27 1   
    15     7     9 ar  
    16     7    20 ar  
    17     7    37 1   
    18     8     9 ar  
    19     8    19 ar  
    20     8    28 1   
    21     9    29 1   
    22    10    14 1   
    23    10    16 2   
    24    10    36 1   
    25    11    12 ar  
    26    12    13 ar  
    27    12    35 1   
    28    14    17 1   
    29    14    30 1   
    30    15    36 1   
    31    17    18 1   
    32    17    31 1   
    33    17    32 1   
    34    18    19 ar  
    35    18    20 ar  
    36    19    33 1   
    37    20    34 1   
    38    23    35 1   
    39    24    35 1   
    40    36    38 1   
@<TRIPOS>SUBSTRUCTURE
     1 7XJ         1 TEMP              0 ****  ****    0 ROOT
