@<TRIPOS>MOLECULE
7XK
   77    79     1     0     0
SMALL
abcg2


@<TRIPOS>ATOM
      1 C1          50.9970   -25.8840     5.6680 ca         1 7XK      -0.101000
      2 C11         45.2110   -23.6900     2.2010 c3         1 7XK       0.089700
      3 C12         45.0450   -22.1730     2.0570 c          1 7XK       0.588100
      4 C14         45.5790   -20.2270     0.6940 c3         1 7XK       0.041700
      5 C15         44.1500   -19.8110     0.3420 c          1 7XK       0.592100
      6 C17         42.4810   -18.0120     0.6280 c3         1 7XK       0.104700
      7 C18         42.6190   -24.1140     1.9440 cx         1 7XK      -0.122900
      8 C19         41.8210   -17.7420     1.9790 c3         1 7XK      -0.070400
      9 C2          51.0680   -24.4990     5.7090 ca         1 7XK      -0.116000
     10 C20         41.6950   -18.9880     2.8430 c5         1 7XK      -0.157700
     11 C21         40.8360   -20.1140     2.2720 c5         1 7XK      -0.089400
     12 C22         40.2850   -20.8190     3.5130 c5         1 7XK       0.100000
     13 C23         48.7050   -19.4730    -1.5080 c3         1 7XK      -0.088100
     14 C24         41.0470   -18.7020     4.1890 c          1 7XK       0.566000
     15 C27         42.6370   -16.7470    -0.2120 c3         1 7XK       0.150600
     16 C3          49.9200   -23.7500     5.9320 ca         1 7XK      -0.084000
     17 C30         44.0430   -24.4820     1.6530 cx         1 7XK      -0.156700
     18 C34         46.4960   -19.8770    -0.4840 c3         1 7XK      -0.079400
     19 C35         47.9890   -19.6750    -0.1700 c3         1 7XK      -0.047000
     20 C36         48.1820   -18.4220     0.6870 c3         1 7XK      -0.088100
     21 C37         48.6090   -20.8780     0.5400 c3         1 7XK      -0.088100
     22 C4          48.6940   -24.3750     6.1300 ca         1 7XK      -0.123300
     23 C5          48.6320   -25.7660     6.0960 ca         1 7XK      -0.084000
     24 C6          49.7750   -26.5170     5.8620 ca         1 7XK      -0.116000
     25 C7          47.4600   -23.5620     6.4050 c3         1 7XK       0.230900
     26 C8          43.1600   -23.9930     0.5510 cx         1 7XK      -0.122900
     27 C9          46.4430   -23.5860     4.2810 c          1 7XK       0.641100
     28 N10         45.3840   -24.0430     3.5870 ns         1 7XK      -0.483900
     29 N13         45.6240   -21.6400     0.9740 ns         1 7XK      -0.478900
     30 N16         43.7870   -18.6090     0.8150 ns         1 7XK      -0.500900
     31 N23         40.2580   -19.7490     4.4870 ns         1 7XK      -0.514900
     32 O26         41.2210   -17.7120     4.8790 o          1 7XK      -0.562000
     33 O29         47.3570   -22.9530     3.7970 o          1 7XK      -0.542000
     34 O33         44.4320   -21.5090     2.8790 o          1 7XK      -0.611100
     35 O38         43.4390   -20.5150    -0.3590 o          1 7XK      -0.609100
     36 O8          46.3630   -23.9300     5.5710 os         1 7XK      -0.451100
     37 H1          51.8890   -26.4700     5.4870 ha         1 7XK       0.111000
     38 H2          46.1050   -23.9930     1.6470 h1         1 7XK       0.074700
     39 H3          45.9010   -19.6810     1.5870 h1         1 7XK       0.076700
     40 H4          41.8800   -18.7270     0.0640 h1         1 7XK       0.093700
     41 H5          42.4240   -23.2010     2.4900 hc         1 7XK       0.083700
     42 H6          41.9280   -24.9180     2.1630 hc         1 7XK       0.083700
     43 H7          42.4000   -16.9850     2.5160 hc         1 7XK       0.065200
     44 H8          40.8290   -17.3170     1.8090 hc         1 7XK       0.065200
     45 H9          52.0160   -23.9990     5.5560 ha         1 7XK       0.112500
     46 H10         42.6960   -19.3780     3.0650 hc         1 7XK       0.092700
     47 H11         40.0130   -19.6950     1.6870 hc         1 7XK       0.063200
     48 H12         41.3880   -20.7950     1.6270 hc         1 7XK       0.063200
     49 H13         39.2910   -21.2340     3.3550 h1         1 7XK       0.043200
     50 H14         40.9410   -21.6330     3.8380 h1         1 7XK       0.043200
     51 H15         49.7690   -19.2850    -1.3560 hc         1 7XK       0.037144
     52 H16         48.6090   -20.3560    -2.1430 hc         1 7XK       0.037144
     53 H17         48.2920   -18.6220    -2.0550 hc         1 7XK       0.037144
     54 H18         43.1460   -17.0150    -1.1470 h1         1 7XK       0.022700
     55 H19         43.2910   -16.0440     0.3220 h1         1 7XK       0.022700
     56 H20         49.9790   -22.6680     5.9480 ha         1 7XK       0.116000
     57 H21         44.2560   -25.5460     1.6400 hc         1 7XK       0.085700
     58 H22         46.1340   -18.9500    -0.9390 hc         1 7XK       0.054700
     59 H23         46.3780   -20.6480    -1.2540 hc         1 7XK       0.054700
     60 H24         47.7060   -18.5110     1.6650 hc         1 7XK       0.037144
     61 H25         49.2440   -18.2380     0.8610 hc         1 7XK       0.037144
     62 H26         47.7680   -17.5410     0.1930 hc         1 7XK       0.037144
     63 H27         48.1840   -21.0420     1.5320 hc         1 7XK       0.037144
     64 H28         48.4790   -21.7970    -0.0370 hc         1 7XK       0.037144
     65 H29         49.6830   -20.7240     0.6700 hc         1 7XK       0.037144
     66 H30         47.6860   -26.2720     6.2530 ha         1 7XK       0.116000
     67 H31         49.7120   -27.5970     5.8330 ha         1 7XK       0.112500
     68 H32         47.6730   -22.4940     6.3180 h1         1 7XK       0.067200
     69 H33         47.1000   -23.7460     7.4180 h1         1 7XK       0.067200
     70 H34         42.8450   -24.7190    -0.1860 hc         1 7XK       0.083700
     71 H35         43.3160   -22.9990     0.1530 hc         1 7XK       0.083700
     72 H36         44.6000   -24.4420     4.0810 hn         1 7XK       0.337500
     73 H37         46.1060   -22.2430     0.3270 hn         1 7XK       0.328500
     74 H38         44.4300   -18.1200     1.4200 hn         1 7XK       0.315500
     75 H39         39.8100   -19.8420     5.3860 hn         1 7XK       0.323500
     76 H40         41.4710   -15.3700    -0.9190 ho         1 7XK       0.447000
     77 O28         41.3620   -16.2010    -0.4480 oh         1 7XK      -0.656000
@<TRIPOS>BOND
     1     1     9 ar  
     2     1    24 ar  
     3     1    37 1   
     4     2     3 1   
     5     2    17 1   
     6     2    28 1   
     7     2    38 1   
     8     3    29 1   
     9     3    34 2   
    10     4     5 1   
    11     4    18 1   
    12     4    29 1   
    13     4    39 1   
    14     5    30 1   
    15     5    35 2   
    16     6     8 1   
    17     6    15 1   
    18     6    30 1   
    19     6    40 1   
    20     7    17 1   
    21     7    26 1   
    22     7    41 1   
    23     7    42 1   
    24     8    10 1   
    25     8    43 1   
    26     8    44 1   
    27     9    16 ar  
    28     9    45 1   
    29    10    11 1   
    30    10    14 1   
    31    10    46 1   
    32    11    12 1   
    33    11    47 1   
    34    11    48 1   
    35    12    31 1   
    36    12    49 1   
    37    12    50 1   
    38    13    19 1   
    39    13    51 1   
    40    13    52 1   
    41    13    53 1   
    42    14    31 1   
    43    14    32 2   
    44    15    54 1   
    45    15    55 1   
    46    15    77 1   
    47    16    22 ar  
    48    16    56 1   
    49    17    26 1   
    50    17    57 1   
    51    18    19 1   
    52    18    58 1   
    53    18    59 1   
    54    19    20 1   
    55    19    21 1   
    56    20    60 1   
    57    20    61 1   
    58    20    62 1   
    59    21    63 1   
    60    21    64 1   
    61    21    65 1   
    62    22    23 ar  
    63    22    25 1   
    64    23    24 ar  
    65    23    66 1   
    66    24    67 1   
    67    25    36 1   
    68    25    68 1   
    69    25    69 1   
    70    26    70 1   
    71    26    71 1   
    72    27    28 1   
    73    27    33 2   
    74    27    36 1   
    75    28    72 1   
    76    29    73 1   
    77    30    74 1   
    78    31    75 1   
    79    76    77 1   
@<TRIPOS>SUBSTRUCTURE
     1 7XK         1 TEMP              0 ****  ****    0 ROOT
