@<TRIPOS>MOLECULE
7XK
   77    79     1     0     0
SMALL
No Charge or Current Charge


@<TRIPOS>ATOM
      1 C1          50.5890   -27.8070     4.9280 ca         1 7XK      -0.101000
      2 C11         45.5440   -23.1630     2.9810 c3         1 7XK       0.089700
      3 C12         45.5320   -21.6270     2.6940 c          1 7XK       0.588100
      4 C14         45.3570   -19.9050     0.8380 c3         1 7XK       0.041700
      5 C15         43.9840   -19.7410     0.1270 c          1 7XK       0.592100
      6 C17         42.0930   -18.1110    -0.2680 c3         1 7XK       0.104700
      7 C18         43.0150   -23.2500     3.7980 cx         1 7XK      -0.122900
      8 C19         41.1780   -17.7410     0.9300 c3         1 7XK      -0.070400
      9 C2          51.1730   -26.6390     4.4080 ca         1 7XK      -0.116000
     10 C20         41.0340   -18.8420     2.0220 c5         1 7XK      -0.157700
     11 C21         40.3840   -20.1710     1.5430 c5         1 7XK      -0.089400
     12 C22         39.9370   -20.7950     2.8920 c5         1 7XK       0.100000
     13 C23         48.8740   -18.8620    -0.7140 c3         1 7XK      -0.088100
     14 C24         40.1350   -18.4400     3.1980 c          1 7XK       0.566000
     15 C27         42.1940   -16.9900    -1.3380 c3         1 7XK       0.150600
     16 C3          50.7100   -25.3770     4.8180 ca         1 7XK      -0.084000
     17 C30         44.1570   -23.8260     2.9870 cx         1 7XK      -0.156700
     18 C34         46.5180   -19.5570    -0.1410 c3         1 7XK      -0.079400
     19 C35         47.9340   -19.2510     0.4580 c3         1 7XK      -0.047000
     20 C36         47.8690   -18.0610     1.4530 c3         1 7XK      -0.088100
     21 C37         48.5420   -20.4870     1.1730 c3         1 7XK      -0.088100
     22 C4          49.6580   -25.2740     5.7510 ca         1 7XK      -0.123300
     23 C5          49.0770   -26.4490     6.2690 ca         1 7XK      -0.084000
     24 C6          49.5410   -27.7110     5.8590 ca         1 7XK      -0.116000
     25 C7          49.1510   -23.9060     6.2030 c3         1 7XK       0.230900
     26 C8          42.9380   -23.2550     2.2900 cx         1 7XK      -0.122900
     27 C9          47.5370   -23.5130     4.4630 c          1 7XK       0.641100
     28 N10         46.1890   -23.4440     4.2740 ns         1 7XK      -0.483900
     29 N13         45.4640   -21.2860     1.3570 ns         1 7XK      -0.478900
     30 N16         43.4320   -18.4800     0.2150 ns         1 7XK      -0.500900
     31 N23         39.5310   -19.5940     3.6190 ns         1 7XK      -0.514900
     32 O26         39.7940   -17.3310     3.5760 o          1 7XK      -0.562000
     33 O29         48.3730   -23.3490     3.5880 o          1 7XK      -0.542000
     34 O33         45.5470   -20.7740     3.5760 o          1 7XK      -0.611100
     35 O38         43.4200   -20.6600    -0.4540 o          1 7XK      -0.609100
     36 O8          47.7840   -23.7390     5.7830 os         1 7XK      -0.451100
     37 H1          50.9480   -28.7830     4.6100 ha         1 7XK       0.111000
     38 H2          46.1430   -23.6300     2.1870 h1         1 7XK       0.074700
     39 H3          45.3580   -19.1960     1.6740 h1         1 7XK       0.076700
     40 H4          41.6470   -18.9820    -0.7670 h1         1 7XK       0.093700
     41 H5          43.1610   -22.2920     4.2920 hc         1 7XK       0.083700
     42 H6          42.3770   -23.9450     4.3400 hc         1 7XK       0.083700
     43 H7          41.5670   -16.8240     1.3910 hc         1 7XK       0.065200
     44 H8          40.1820   -17.4850     0.5480 hc         1 7XK       0.065200
     45 H9          51.9840   -26.7120     3.6870 ha         1 7XK       0.112500
     46 H10         42.0160   -19.0780     2.4480 hc         1 7XK       0.092700
     47 H11         39.5170   -19.9810     0.8990 hc         1 7XK       0.063200
     48 H12         41.0700   -20.8190     0.9870 hc         1 7XK       0.063200
     49 H13         39.1180   -21.5150     2.7630 h1         1 7XK       0.043200
     50 H14         40.7700   -21.3020     3.3980 h1         1 7XK       0.043200
     51 H15         49.8830   -18.6290    -0.3520 hc         1 7XK       0.037144
     52 H16         48.9590   -19.6810    -1.4390 hc         1 7XK       0.037144
     53 H17         48.4980   -17.9780    -1.2450 hc         1 7XK       0.037144
     54 H18         42.9040   -17.3060    -2.1130 h1         1 7XK       0.022700
     55 H19         42.5960   -16.0810    -0.8710 h1         1 7XK       0.022700
     56 H20         51.1660   -24.4790     4.4070 ha         1 7XK       0.116000
     57 H21         44.2400   -24.9120     2.9910 hc         1 7XK       0.085700
     58 H22         46.2090   -18.6720    -0.7130 hc         1 7XK       0.054700
     59 H23         46.6030   -20.3640    -0.8800 hc         1 7XK       0.054700
     60 H24         47.2910   -18.3170     2.3490 hc         1 7XK       0.037144
     61 H25         48.8750   -17.7750     1.7840 hc         1 7XK       0.037144
     62 H26         47.4060   -17.1830     0.9860 hc         1 7XK       0.037144
     63 H27         48.0220   -20.7050     2.1110 hc         1 7XK       0.037144
     64 H28         48.4910   -21.3780     0.5340 hc         1 7XK       0.037144
     65 H29         49.5950   -20.3130     1.4250 hc         1 7XK       0.037144
     66 H30         48.2640   -26.3830     6.9890 ha         1 7XK       0.116000
     67 H31         49.0880   -28.6140     6.2620 ha         1 7XK       0.112500
     68 H32         49.7890   -23.1040     5.8050 h1         1 7XK       0.067200
     69 H33         49.2140   -23.8560     7.2980 h1         1 7XK       0.067200
     70 H34         42.2500   -23.9550     1.8220 hc         1 7XK       0.083700
     71 H35         43.0020   -22.2940     1.7880 hc         1 7XK       0.083700
     72 H36         45.6150   -23.5640     5.0970 hn         1 7XK       0.337500
     73 H37         45.4060   -22.0510     0.6930 hn         1 7XK       0.328500
     74 H38         43.9730   -17.7780     0.7070 hn         1 7XK       0.315500
     75 H39         38.8200   -19.5420     4.3390 hn         1 7XK       0.323500
     76 H40         41.0510   -16.0110    -2.5980 ho         1 7XK       0.447000
     77 O28         40.9150   -16.7210    -1.9310 oh         1 7XK      -0.656000
@<TRIPOS>BOND
     1     1     9 ar  
     2     1    24 ar  
     3     1    37 1   
     4     2     3 1   
     5     2    17 1   
     6     2    28 1   
     7     2    38 1   
     8     3    29 1   
     9     3    34 2   
    10     4     5 1   
    11     4    18 1   
    12     4    29 1   
    13     4    39 1   
    14     5    30 1   
    15     5    35 2   
    16     6     8 1   
    17     6    15 1   
    18     6    30 1   
    19     6    40 1   
    20     7    17 1   
    21     7    26 1   
    22     7    41 1   
    23     7    42 1   
    24     8    10 1   
    25     8    43 1   
    26     8    44 1   
    27     9    16 ar  
    28     9    45 1   
    29    10    11 1   
    30    10    14 1   
    31    10    46 1   
    32    11    12 1   
    33    11    47 1   
    34    11    48 1   
    35    12    31 1   
    36    12    49 1   
    37    12    50 1   
    38    13    19 1   
    39    13    51 1   
    40    13    52 1   
    41    13    53 1   
    42    14    31 1   
    43    14    32 2   
    44    15    54 1   
    45    15    55 1   
    46    15    77 1   
    47    16    22 ar  
    48    16    56 1   
    49    17    26 1   
    50    17    57 1   
    51    18    19 1   
    52    18    58 1   
    53    18    59 1   
    54    19    20 1   
    55    19    21 1   
    56    20    60 1   
    57    20    61 1   
    58    20    62 1   
    59    21    63 1   
    60    21    64 1   
    61    21    65 1   
    62    22    23 ar  
    63    22    25 1   
    64    23    24 ar  
    65    23    66 1   
    66    24    67 1   
    67    25    36 1   
    68    25    68 1   
    69    25    69 1   
    70    26    70 1   
    71    26    71 1   
    72    27    28 1   
    73    27    33 2   
    74    27    36 1   
    75    28    72 1   
    76    29    73 1   
    77    30    74 1   
    78    31    75 1   
    79    76    77 1   
@<TRIPOS>SUBSTRUCTURE
     1 7XK         1 TEMP              0 ****  ****    0 ROOT
