@<TRIPOS>MOLECULE
7XL
   44    45     1     0     0
SMALL
No Charge or Current Charge


@<TRIPOS>ATOM
      1 O1          -3.9710    -0.6100    -1.2760 o          1 7XL      -0.531000
      2 C1          -4.4370     0.3360    -0.6630 c          1 7XL       0.719400
      3 N1          -5.7990     0.4930    -0.6390 nc         1 7XL      -0.772100
      4 C2          -6.3320     1.4560     0.0300 cd         1 7XL       0.783500
      5 N2          -7.6460     1.5070    -0.0070 nv         1 7XL      -1.049200
      6 C3          -5.6110     2.3960     0.7890 cd         1 7XL      -0.511600
      7 C4          -4.2420     2.2820     0.7910 cc         1 7XL       0.045600
      8 N3          -3.6460     1.2620     0.0560 n          1 7XL      -0.308000
      9 C5          -2.1600     1.1900     0.0230 c5         1 7XL       0.323700
     10 O2          -1.6260     0.8370    -1.2680 os         1 7XL      -0.399000
     11 C6          -1.6990     0.0870     1.0500 c5         1 7XL       0.100300
     12 O3          -0.7530     0.5730     2.0110 oh         1 7XL      -0.738000
     13 C7          -0.9800    -0.9370     0.1150 c5         1 7XL       0.089300
     14 O4           0.0640    -1.6350     0.8290 oh         1 7XL      -0.712000
     15 C8          -0.4810    -0.0070    -1.0430 c5         1 7XL       0.168300
     16 C9          -0.1290    -0.7350    -2.3730 c3         1 7XL       0.229600
     17 O5           0.9340    -1.6920    -2.2050 os         1 7XL      -0.568400
     18 P1           2.4620    -1.2410    -1.9700 p5         1 7XL       1.457800
     19 O6           2.7560    -0.0200    -2.7700 o          1 7XL      -0.853500
     20 O7           3.3580    -2.3870    -2.2970 o          1 7XL      -0.853500
     21 O8           2.3260    -1.0190    -0.4160 os         1 7XL      -0.707800
     22 P2           3.5200    -0.1270     0.1150 p5         1 7XL       1.480400
     23 O9           3.2580     1.3370    -0.0170 o          1 7XL      -0.851500
     24 O10          4.8870    -0.5520    -0.3120 o          1 7XL      -0.851500
     25 C10          3.3160    -0.5780     1.8700 c3         1 7XL      -0.431400
     26 C11          4.3780     0.0840     2.7420 c3         1 7XL       0.178600
     27 O11          4.1490    -0.3060     4.0950 oh         1 7XL      -0.684000
     28 H1          -8.0700     0.6490    -0.3330 hn         1 7XL       0.491000
     29 H2          -8.0930     1.9480     0.7850 hn         1 7XL       0.491000
     30 H3          -6.1160     3.1790     1.3400 ha         1 7XL       0.188000
     31 H4          -3.5410     2.9240     1.3210 h4         1 7XL       0.197000
     32 H5          -1.7770     2.1740     0.3190 h2         1 7XL       0.055700
     33 H6          -2.5520    -0.3840     1.5590 h1         1 7XL       0.054700
     34 H7          -0.1040    -0.1760     2.0610 ho         1 7XL       0.523000
     35 H8          -1.7100    -1.6560    -0.2860 h1         1 7XL       0.088700
     36 H9           0.9010    -1.5500     0.2900 ho         1 7XL       0.497000
     37 H10          0.3580     0.6280    -0.7270 h1         1 7XL       0.069700
     38 H11         -1.0280    -1.2480    -2.7350 h1         1 7XL       0.030200
     39 H12          0.1410     0.0160    -3.1270 h1         1 7XL       0.030200
     40 H15          2.3140    -0.2620     2.1780 hc         1 7XL       0.053700
     41 H16          3.3780    -1.6680     1.9410 hc         1 7XL       0.053700
     42 H17          5.3790    -0.2330     2.4190 h1         1 7XL       0.015700
     43 H18          4.3140     1.1760     2.6440 h1         1 7XL       0.015700
     44 H19          4.8430     0.1290     4.6360 ho         1 7XL       0.394000
@<TRIPOS>BOND
     1     1     2 2   
     2     2     3 1   
     3     2     8 1   
     4     3     4 2   
     5     4     5 1   
     6     4     6 1   
     7     5    28 1   
     8     5    29 1   
     9     6     7 2   
    10     6    30 1   
    11     7     8 1   
    12     7    31 1   
    13     8     9 1   
    14     9    10 1   
    15     9    11 1   
    16     9    32 1   
    17    10    15 1   
    18    11    12 1   
    19    11    13 1   
    20    11    33 1   
    21    12    34 1   
    22    13    14 1   
    23    13    15 1   
    24    13    35 1   
    25    14    36 1   
    26    15    16 1   
    27    15    37 1   
    28    16    17 1   
    29    16    38 1   
    30    16    39 1   
    31    17    18 1   
    32    18    19 1   
    33    18    20 1   
    34    18    21 1   
    35    21    22 1   
    36    22    23 1   
    37    22    24 1   
    38    22    25 1   
    39    25    26 1   
    40    25    40 1   
    41    25    41 1   
    42    26    27 1   
    43    26    42 1   
    44    26    43 1   
    45    27    44 1   
@<TRIPOS>SUBSTRUCTURE
     1 7XL         1 TEMP              0 ****  ****    0 ROOT
