@<TRIPOS>MOLECULE
7XL
   44    45     1     0     0
SMALL
abcg2


@<TRIPOS>ATOM
      1 O1          -3.4900    -0.1290    -1.5340 o          1 7XL      -0.531000
      2 C1          -3.9230     0.8010    -0.8690 c          1 7XL       0.719400
      3 N1          -4.4360     1.9150    -1.4270 nc         1 7XL      -0.772100
      4 C2          -4.9050     2.8970    -0.6830 cd         1 7XL       0.783500
      5 N2          -5.3990     3.9730    -1.2940 nv         1 7XL      -1.049200
      6 C3          -4.8960     2.8400     0.7450 cd         1 7XL      -0.511600
      7 C4          -4.3710     1.7280     1.2930 cc         1 7XL       0.045600
      8 N3          -3.8950     0.7110     0.5330 n          1 7XL      -0.308000
      9 C5          -3.2950    -0.4380     1.1910 c5         1 7XL       0.323700
     10 O2          -1.9210    -0.4640     0.9230 os         1 7XL      -0.399000
     11 C6          -3.8750    -1.8180     0.8320 c5         1 7XL       0.100300
     12 O3          -4.1680    -2.4830     2.0340 oh         1 7XL      -0.738000
     13 C7          -2.7160    -2.5170     0.0990 c5         1 7XL       0.089300
     14 O4          -2.6190    -3.8840     0.4180 oh         1 7XL      -0.712000
     15 C8          -1.4850    -1.7760     0.6180 c5         1 7XL       0.168300
     16 C9          -0.3740    -1.7280    -0.4020 c3         1 7XL       0.229600
     17 O5           0.7500    -1.0730     0.1460 os         1 7XL      -0.568400
     18 P1           2.1960    -1.3320    -0.6110 p5         1 7XL       1.457800
     19 O6           2.0660    -0.9720    -2.0580 o          1 7XL      -0.853500
     20 O7           2.7110    -2.6820    -0.2140 o          1 7XL      -0.853500
     21 O8           2.9820    -0.1710     0.2290 os         1 7XL      -0.707800
     22 P2           4.2150     0.7600    -0.3920 p5         1 7XL       1.480400
     23 O9           3.6220     1.9660    -1.0660 o          1 7XL      -0.851500
     24 O10          5.1700    -0.1280    -1.1430 o          1 7XL      -0.851500
     25 C10          4.9590     1.2670     1.2010 c3         1 7XL      -0.431400
     26 C11          6.1420     2.1910     0.9790 c3         1 7XL       0.178600
     27 O11          6.6840     2.5580     2.2320 oh         1 7XL      -0.684000
     28 H1          -5.4040     4.0270    -2.2980 hn         1 7XL       0.491000
     29 H2          -5.7730     4.7480    -0.7770 hn         1 7XL       0.491000
     30 H3          -5.2770     3.6420     1.3580 ha         1 7XL       0.188000
     31 H4          -4.3090     1.5970     2.3640 h4         1 7XL       0.197000
     32 H5          -3.4720    -0.2760     2.2590 h2         1 7XL       0.055700
     33 H6          -4.7700    -1.7370     0.2050 h1         1 7XL       0.054700
     34 H7          -3.8970    -3.4040     1.9150 ho         1 7XL       0.523000
     35 H8          -2.8220    -2.3700    -0.9760 h1         1 7XL       0.088700
     36 H9          -3.1030    -4.3920    -0.2410 ho         1 7XL       0.497000
     37 H10         -1.1250    -2.2750     1.5300 h1         1 7XL       0.069700
     38 H11         -0.1450    -2.7630    -0.6840 h1         1 7XL       0.030200
     39 H12         -0.7300    -1.2100    -1.3000 h1         1 7XL       0.030200
     40 H15          4.2050     1.7750     1.8090 hc         1 7XL       0.053700
     41 H16          5.2830     0.3800     1.7540 hc         1 7XL       0.053700
     42 H17          6.8890     1.6810     0.3590 h1         1 7XL       0.015700
     43 H18          5.8110     3.0730     0.4170 h1         1 7XL       0.015700
     44 H19          7.4420     3.1280     2.0720 ho         1 7XL       0.394000
@<TRIPOS>BOND
     1     1     2 2   
     2     2     3 1   
     3     2     8 1   
     4     3     4 2   
     5     4     5 1   
     6     4     6 1   
     7     5    28 1   
     8     5    29 1   
     9     6     7 2   
    10     6    30 1   
    11     7     8 1   
    12     7    31 1   
    13     8     9 1   
    14     9    10 1   
    15     9    11 1   
    16     9    32 1   
    17    10    15 1   
    18    11    12 1   
    19    11    13 1   
    20    11    33 1   
    21    12    34 1   
    22    13    14 1   
    23    13    15 1   
    24    13    35 1   
    25    14    36 1   
    26    15    16 1   
    27    15    37 1   
    28    16    17 1   
    29    16    38 1   
    30    16    39 1   
    31    17    18 1   
    32    18    19 1   
    33    18    20 1   
    34    18    21 1   
    35    21    22 1   
    36    22    23 1   
    37    22    24 1   
    38    22    25 1   
    39    25    26 1   
    40    25    40 1   
    41    25    41 1   
    42    26    27 1   
    43    26    42 1   
    44    26    43 1   
    45    27    44 1   
@<TRIPOS>SUBSTRUCTURE
     1 7XL         1 TEMP              0 ****  ****    0 ROOT
