@<TRIPOS>MOLECULE
7XM
   21    22     1     0     0
SMALL
No Charge or Current Charge


@<TRIPOS>ATOM
      1 C5          -0.5370     1.5700    -0.0230 ca         1 7XM      -0.036000
      2 C6          -1.5080    -1.0700     0.0690 ca         1 7XM      -0.211000
      3 C8          -2.4030     0.0060     0.0820 ca         1 7XM       0.327000
      4 C10          2.1700    -1.5960    -0.0640 ca         1 7XM       0.385900
      5 C1           0.3690     0.4870    -0.0340 ca         1 7XM      -0.169000
      6 C2           1.7680     0.6510    -0.0910 ca         1 7XM       0.626900
      7 C3          -0.1250    -0.8290     0.0110 ca         1 7XM       0.067000
      8 N4           2.6550    -0.3360    -0.1050 nb         1 7XM      -0.773000
      9 N7           2.4120     1.8230    -0.1210 nv         1 7XM      -1.054900
     10 C9          -1.9200     1.3210     0.0360 ca         1 7XM      -0.182000
     11 N11         -3.7470    -0.2290     0.1380 nv         1 7XM      -1.085000
     12 C12          0.7970    -1.8860    -0.0060 ca         1 7XM      -0.221000
     13 H1          -0.1840     2.5980    -0.0630 ha         1 7XM       0.106000
     14 H2          -1.8800    -2.0900     0.1050 ha         1 7XM       0.116000
     15 H3           2.9050    -2.4000    -0.0770 h4         1 7XM       0.012100
     16 H4           1.9350     2.6220     0.2780 hn         1 7XM       0.470000
     17 H5           3.4070     1.7590     0.0570 hn         1 7XM       0.470000
     18 H6          -2.6150     2.1570     0.0450 ha         1 7XM       0.112000
     19 H7          -4.0970    -1.1760     0.0050 hn         1 7XM       0.458500
     20 H8          -4.4000     0.5370    -0.0180 hn         1 7XM       0.458500
     21 H9           0.4650    -2.9200     0.0270 ha         1 7XM       0.121000
@<TRIPOS>BOND
     1     1     5 ar  
     2     1    10 ar  
     3     1    13 1   
     4     2     3 ar  
     5     2     7 ar  
     6     2    14 1   
     7     3    10 ar  
     8     3    11 1   
     9     4     8 ar  
    10     4    12 ar  
    11     4    15 1   
    12     5     6 ar  
    13     5     7 ar  
    14     6     8 ar  
    15     6     9 1   
    16     7    12 ar  
    17     9    16 1   
    18     9    17 1   
    19    10    18 1   
    20    11    19 1   
    21    11    20 1   
    22    12    21 1   
@<TRIPOS>SUBSTRUCTURE
     1 7XM         1 TEMP              0 ****  ****    0 ROOT
