@<TRIPOS>MOLECULE
7XM
   21    22     1     0     0
SMALL
bcc


@<TRIPOS>ATOM
      1 C5          -0.5290     1.5330    -0.0090 ca         1 7XM      -0.054000
      2 C6          -1.5080    -1.0700     0.0880 ca         1 7XM      -0.229000
      3 C8          -2.3960    -0.0080     0.1020 ca         1 7XM       0.188600
      4 C10          2.1380    -1.6340    -0.0760 ca         1 7XM       0.451200
      5 C1           0.3910     0.4620    -0.0090 ca         1 7XM      -0.234300
      6 C2           1.8130     0.6320    -0.0620 ca         1 7XM       0.692200
      7 C3          -0.1200    -0.8580     0.0300 ca         1 7XM       0.067000
      8 N4           2.6480    -0.3850    -0.0980 nb         1 7XM      -0.773000
      9 N7           2.3590     1.8790    -0.1270 nv         1 7XM      -0.944500
     10 C9          -1.8750     1.3120     0.0480 ca         1 7XM      -0.200000
     11 N11         -3.7470    -0.1950     0.2070 nv         1 7XM      -0.836200
     12 C12          0.8110    -1.9290    -0.0050 ca         1 7XM      -0.304300
     13 H1          -0.1870     2.5580    -0.0640 ha         1 7XM       0.124000
     14 H2          -1.8820    -2.0870     0.1170 ha         1 7XM       0.134000
     15 H3           2.8710    -2.4330    -0.1120 h4         1 7XM       0.012100
     16 H4           1.8550     2.6540     0.2690 hn         1 7XM       0.414800
     17 H5           3.3530     1.9230     0.0280 hn         1 7XM       0.414800
     18 H6          -2.5600     2.1510     0.0470 ha         1 7XM       0.130000
     19 H7          -4.1040    -1.1050    -0.0350 hn         1 7XM       0.403300
     20 H8          -4.3380     0.5550    -0.1090 hn         1 7XM       0.403300
     21 H9           0.4720    -2.9560     0.0200 ha         1 7XM       0.139000
@<TRIPOS>BOND
     1     1     5 ar  
     2     1    10 ar  
     3     1    13 1   
     4     2     3 ar  
     5     2     7 ar  
     6     2    14 1   
     7     3    10 ar  
     8     3    11 1   
     9     4     8 ar  
    10     4    12 ar  
    11     4    15 1   
    12     5     6 ar  
    13     5     7 ar  
    14     6     8 ar  
    15     6     9 1   
    16     7    12 ar  
    17     9    16 1   
    18     9    17 1   
    19    10    18 1   
    20    11    19 1   
    21    11    20 1   
    22    12    21 1   
@<TRIPOS>SUBSTRUCTURE
     1 7XM         1 TEMP              0 ****  ****    0 ROOT
