@<TRIPOS>MOLECULE
7XN
   69    72     1     0     0
SMALL
No Charge or Current Charge


@<TRIPOS>ATOM
      1 C10         -8.0210   -30.3490    24.0090 ca         1 7XN      -0.146800
      2 C13         -9.4900   -30.7760    22.1440 ca         1 7XN      -0.389500
      3 C20        -11.0710   -34.8050    21.9010 ca         1 7XN       0.308900
      4 C26         -8.7850   -34.0170    21.9450 ca         1 7XN      -0.094000
      5 C28         -7.1820   -35.2020    23.3880 cg         1 7XN      -0.130000
      6 C01        -13.0180   -30.4610    23.3090 c3         1 7XN       0.163900
      7 O05        -11.8590   -30.6960    22.4840 os         1 7XN      -0.472300
      8 C06        -10.5840   -30.5380    22.9740 ca         1 7XN       0.667300
      9 N07        -10.4310   -30.1990    24.2690 nb         1 7XN      -0.767000
     10 C08         -9.1800   -30.1070    24.7690 ca         1 7XN       0.444900
     11 C11         -8.1860   -30.6790    22.6580 ca         1 7XN       0.067000
     12 S14         -9.7420   -31.2900    20.4720 sy         1 7XN       1.172600
     13 O15         -8.4560   -31.5450    19.8200 o          1 7XN      -0.525500
     14 O16        -10.7890   -30.4910    19.8360 o          1 7XN      -0.525500
     15 N17        -10.4520   -32.8030    20.6040 nu         1 7XN      -0.861100
     16 C19        -10.1010   -33.8630    21.4610 ca         1 7XN       0.223000
     17 N22        -10.8110   -35.8230    22.7620 nb         1 7XN      -0.646000
     18 C23         -9.5430   -35.9340    23.2290 ca         1 7XN       0.339900
     19 C25         -8.5040   -35.0560    22.8510 ca         1 7XN       0.013000
     20 C29         -6.0610   -35.3130    23.8450 c1         1 7XN      -0.092100
     21 C30         -4.7040   -35.5020    24.3800 c3         1 7XN       0.246900
     22 N33         -3.7150   -34.4930    23.9170 n3         1 7XN      -0.714600
     23 C34         -2.4040   -34.6420    24.6140 c6         1 7XN       0.156800
     24 C37         -1.3480   -33.5850    24.1610 c6         1 7XN       0.164300
     25 N40         -1.1220   -33.5680    22.6750 n3         1 7XN      -0.720600
     26 C41         -2.4490   -33.4390    21.9810 c6         1 7XN       0.164300
     27 C44         -3.4900   -34.5080    22.4380 c6         1 7XN       0.156800
     28 C47         -0.1100   -32.5580    22.2320 c3         1 7XN       0.185500
     29 C49          0.1250   -32.5640    20.6990 c3         1 7XN      -0.091600
     30 C53          1.2580   -32.7140    22.9460 c3         1 7XN      -0.091600
     31 C57         -6.6570   -30.2930    24.6090 ce         1 7XN      -0.065400
     32 C58         -5.7320   -31.2490    24.3580 c2         1 7XN      -0.226200
     33 C60         -4.3260   -31.2280    24.9390 c6         1 7XN       0.184800
     34 O63         -3.9940   -29.9110    25.4300 os         1 7XN      -0.448000
     35 C64         -4.9960   -29.3440    26.2960 c6         1 7XN       0.156600
     36 C67         -6.3000   -29.0950    25.5030 c6         1 7XN      -0.071200
     37 H1         -12.1020   -34.7300    21.5550 h4         1 7XN       0.022100
     38 H2          -7.9900   -33.3490    21.6360 ha         1 7XN       0.153000
     39 H3         -13.9370   -30.6340    22.7350 h1         1 7XN       0.056367
     40 H4         -13.0280   -31.1360    24.1740 h1         1 7XN       0.056367
     41 H5         -13.0360   -29.4260    23.6740 h1         1 7XN       0.056367
     42 H6          -9.1120   -29.8580    25.8260 h4         1 7XN       0.025100
     43 H7          -7.3140   -30.8690    22.0330 ha         1 7XN       0.151000
     44 H8         -11.4400   -32.6390    20.4450 hn         1 7XN       0.501000
     45 H9          -9.3560   -36.7490    23.9280 h4         1 7XN       0.031100
     46 H10         -4.3680   -36.5130    24.1100 h1         1 7XN       0.054200
     47 H11         -4.7780   -35.4720    25.4750 h1         1 7XN       0.054200
     48 H13         -1.9910   -35.6440    24.4270 h1         1 7XN       0.041950
     49 H14         -2.5410   -34.5520    25.7020 h1         1 7XN       0.041950
     50 H15         -0.4160   -33.8180    24.6940 h1         1 7XN       0.039700
     51 H16         -1.6720   -32.5920    24.5050 h1         1 7XN       0.039700
     52 H18         -2.8730   -32.4390    22.1570 h1         1 7XN       0.039700
     53 H19         -2.3350   -33.5510    20.8940 h1         1 7XN       0.039700
     54 H20         -4.4300   -34.3180    21.9010 h1         1 7XN       0.041950
     55 H21         -3.1340   -35.4990    22.1210 h1         1 7XN       0.041950
     56 H22         -0.4830   -31.5560    22.4870 h1         1 7XN       0.021700
     57 H23         -0.7630   -32.2220    20.1550 hc         1 7XN       0.038700
     58 H24          0.9420   -31.8850    20.4270 hc         1 7XN       0.038700
     59 H25          0.3860   -33.5700    20.3490 hc         1 7XN       0.038700
     60 H26          1.1820   -32.4820    24.0140 hc         1 7XN       0.038700
     61 H27          1.6410   -33.7360    22.8340 hc         1 7XN       0.038700
     62 H28          1.9980   -32.0240    22.5260 hc         1 7XN       0.038700
     63 H29         -5.9600   -32.1100    23.7290 ha         1 7XN       0.192000
     64 H30         -4.2510   -31.9530    25.7630 h1         1 7XN       0.060700
     65 H31         -3.5980   -31.5130    24.1680 h1         1 7XN       0.060700
     66 H32         -4.6230   -28.3990    26.7160 h1         1 7XN       0.046700
     67 H33         -5.1860   -30.0380    27.1290 h1         1 7XN       0.046700
     68 H34         -6.1760   -28.2030    24.8740 hc         1 7XN       0.056200
     69 H35         -7.1080   -28.8680    26.2080 hc         1 7XN       0.056200
@<TRIPOS>BOND
     1     1    10 ar  
     2     1    11 ar  
     3     1    31 1   
     4     2     8 ar  
     5     2    11 ar  
     6     2    12 1   
     7     3    16 ar  
     8     3    17 ar  
     9     3    37 1   
    10     4    16 ar  
    11     4    19 ar  
    12     4    38 1   
    13     5    19 1   
    14     5    20 3   
    15     6     7 1   
    16     6    39 1   
    17     6    40 1   
    18     6    41 1   
    19     7     8 1   
    20     8     9 ar  
    21     9    10 ar  
    22    10    42 1   
    23    11    43 1   
    24    12    13 2   
    25    12    14 2   
    26    12    15 1   
    27    15    16 1   
    28    15    44 1   
    29    17    18 ar  
    30    18    19 ar  
    31    18    45 1   
    32    20    21 1   
    33    21    22 1   
    34    21    46 1   
    35    21    47 1   
    36    22    23 1   
    37    22    27 1   
    38    23    24 1   
    39    23    48 1   
    40    23    49 1   
    41    24    25 1   
    42    24    50 1   
    43    24    51 1   
    44    25    26 1   
    45    25    28 1   
    46    26    27 1   
    47    26    52 1   
    48    26    53 1   
    49    27    54 1   
    50    27    55 1   
    51    28    29 1   
    52    28    30 1   
    53    28    56 1   
    54    29    57 1   
    55    29    58 1   
    56    29    59 1   
    57    30    60 1   
    58    30    61 1   
    59    30    62 1   
    60    31    32 2   
    61    31    36 1   
    62    32    33 1   
    63    32    63 1   
    64    33    34 1   
    65    33    64 1   
    66    33    65 1   
    67    34    35 1   
    68    35    36 1   
    69    35    66 1   
    70    35    67 1   
    71    36    68 1   
    72    36    69 1   
@<TRIPOS>SUBSTRUCTURE
     1 7XN         1 TEMP              0 ****  ****    0 ROOT
