@<TRIPOS>MOLECULE
7XN
   69    72     1     0     0
SMALL
bcc


@<TRIPOS>ATOM
      1 C10         -7.9510   -30.3950    23.9530 ca         1 7XN      -0.212100
      2 C13         -9.2600   -30.9040    22.0030 ca         1 7XN      -0.454800
      3 C20        -10.9470   -34.3050    22.3750 ca         1 7XN       0.374200
      4 C26         -8.6030   -34.1150    21.9750 ca         1 7XN      -0.112000
      5 C28         -7.0800   -35.1890    23.5520 cg         1 7XN      -0.130000
      6 C01        -12.7740   -30.5730    22.9180 c3         1 7XN       0.140700
      7 O05        -11.5870   -30.7930    22.1570 os         1 7XN      -0.449100
      8 C06        -10.4170   -30.6170    22.7460 ca         1 7XN       0.732600
      9 N07        -10.3500   -30.2060    23.9910 nb         1 7XN      -0.767000
     10 C08         -9.1600   -30.0950    24.5710 ca         1 7XN       0.510200
     11 C11         -8.0300   -30.7950    22.6170 ca         1 7XN       0.049000
     12 S14         -9.3750   -31.5040    20.3450 sy         1 7XN       1.314200
     13 O15         -8.0230   -31.7930    19.9040 o          1 7XN      -0.596300
     14 O16        -10.2230   -30.6670    19.5230 o          1 7XN      -0.596300
     15 N17        -10.1850   -32.9590    20.5140 nu         1 7XN      -0.667500
     16 C19         -9.9010   -33.7910    21.6090 ca         1 7XN       0.019300
     17 N22        -10.7570   -35.0790    23.4300 nb         1 7XN      -0.646000
     18 C23         -9.5200   -35.3580    23.8050 ca         1 7XN       0.405200
     19 C25         -8.4010   -34.8930    23.1120 ca         1 7XN      -0.052300
     20 C29         -5.9480   -35.4060    23.8990 c1         1 7XN      -0.092100
     21 C30         -4.5700   -35.6590    24.3050 c3         1 7XN       0.246900
     22 N33         -3.6750   -34.5930    23.8950 n3         1 7XN      -0.714600
     23 C34         -2.3530   -34.7960    24.4560 c6         1 7XN       0.156800
     24 C37         -1.4150   -33.6730    24.0590 c6         1 7XN       0.164300
     25 N40         -1.3130   -33.5390    22.6160 n3         1 7XN      -0.720600
     26 C41         -2.6420   -33.3550    22.0590 c6         1 7XN       0.164300
     27 C44         -3.5710   -34.4860    22.4520 c6         1 7XN       0.156800
     28 C47         -0.3770   -32.4780    22.2340 c3         1 7XN       0.185500
     29 C49         -0.3700   -32.2380    20.7260 c3         1 7XN      -0.091600
     30 C53          1.0440   -32.8170    22.6790 c3         1 7XN      -0.091600
     31 C57         -6.6630   -30.3280    24.6660 ce         1 7XN      -0.065400
     32 C58         -5.6940   -31.2180    24.4380 c2         1 7XN      -0.176200
     33 C60         -4.3510   -31.1370    25.0870 c6         1 7XN       0.161600
     34 O63         -4.1310   -29.9310    25.7680 os         1 7XN      -0.401600
     35 C64         -5.2420   -29.5500    26.5490 c6         1 7XN       0.133400
     36 C67         -6.4420   -29.2320    25.6740 c6         1 7XN      -0.071200
     37 H1         -11.9750   -34.0750    22.1100 h4         1 7XN       0.022100
     38 H2          -7.7510   -33.7760    21.4030 ha         1 7XN       0.171000
     39 H3         -13.5960   -30.8000    22.2460 h1         1 7XN       0.056367
     40 H4         -12.8160   -31.2320    23.7850 h1         1 7XN       0.056367
     41 H5         -12.8470   -29.5380    23.2500 h1         1 7XN       0.056367
     42 H6          -9.1810   -29.7670    25.6040 h4         1 7XN       0.025100
     43 H7          -7.1260   -31.0140    22.0650 ha         1 7XN       0.169000
     44 H8         -11.1730   -32.8650    20.3010 hn         1 7XN       0.445800
     45 H9          -9.3960   -35.9710    24.6910 h4         1 7XN       0.031100
     46 H10         -4.2580   -36.6400    23.9070 h1         1 7XN       0.054200
     47 H11         -4.5360   -35.7480    25.3950 h1         1 7XN       0.054200
     48 H13         -1.9210   -35.7590    24.1340 h1         1 7XN       0.041950
     49 H14         -2.4250   -34.8230    25.5460 h1         1 7XN       0.041950
     50 H15         -0.4390   -33.9020    24.4840 h1         1 7XN       0.039700
     51 H16         -1.7540   -32.7340    24.5290 h1         1 7XN       0.039700
     52 H18         -3.0900   -32.3950    22.3720 h1         1 7XN       0.039700
     53 H19         -2.5910   -33.3420    20.9710 h1         1 7XN       0.039700
     54 H20         -4.5570   -34.2850    22.0290 h1         1 7XN       0.041950
     55 H21         -3.2090   -35.4270    22.0040 h1         1 7XN       0.041950
     56 H22         -0.6710   -31.5310    22.7220 h1         1 7XN       0.021700
     57 H23         -1.2960   -31.7980    20.3580 hc         1 7XN       0.038700
     58 H24          0.4320   -31.5460    20.4710 hc         1 7XN       0.038700
     59 H25         -0.1930   -33.1700    20.1860 hc         1 7XN       0.038700
     60 H26          1.1590   -32.8700    23.7600 hc         1 7XN       0.038700
     61 H27          1.3570   -33.7740    22.2560 hc         1 7XN       0.038700
     62 H28          1.7350   -32.0520    22.3240 hc         1 7XN       0.038700
     63 H29         -5.8450   -32.0600    23.7700 ha         1 7XN       0.142000
     64 H30         -4.2180   -32.0040    25.7540 h1         1 7XN       0.060700
     65 H31         -3.5730   -31.2200    24.3230 h1         1 7XN       0.060700
     66 H32         -4.9440   -28.6750    27.1270 h1         1 7XN       0.046700
     67 H33         -5.5050   -30.3440    27.2620 h1         1 7XN       0.046700
     68 H34         -6.3070   -28.2760    25.1590 hc         1 7XN       0.056200
     69 H35         -7.3150   -29.1050    26.3190 hc         1 7XN       0.056200
@<TRIPOS>BOND
     1     1    10 ar  
     2     1    11 ar  
     3     1    31 1   
     4     2     8 ar  
     5     2    11 ar  
     6     2    12 1   
     7     3    16 ar  
     8     3    17 ar  
     9     3    37 1   
    10     4    16 ar  
    11     4    19 ar  
    12     4    38 1   
    13     5    19 1   
    14     5    20 3   
    15     6     7 1   
    16     6    39 1   
    17     6    40 1   
    18     6    41 1   
    19     7     8 1   
    20     8     9 ar  
    21     9    10 ar  
    22    10    42 1   
    23    11    43 1   
    24    12    13 2   
    25    12    14 2   
    26    12    15 1   
    27    15    16 1   
    28    15    44 1   
    29    17    18 ar  
    30    18    19 ar  
    31    18    45 1   
    32    20    21 1   
    33    21    22 1   
    34    21    46 1   
    35    21    47 1   
    36    22    23 1   
    37    22    27 1   
    38    23    24 1   
    39    23    48 1   
    40    23    49 1   
    41    24    25 1   
    42    24    50 1   
    43    24    51 1   
    44    25    26 1   
    45    25    28 1   
    46    26    27 1   
    47    26    52 1   
    48    26    53 1   
    49    27    54 1   
    50    27    55 1   
    51    28    29 1   
    52    28    30 1   
    53    28    56 1   
    54    29    57 1   
    55    29    58 1   
    56    29    59 1   
    57    30    60 1   
    58    30    61 1   
    59    30    62 1   
    60    31    32 2   
    61    31    36 1   
    62    32    33 1   
    63    32    63 1   
    64    33    34 1   
    65    33    64 1   
    66    33    65 1   
    67    34    35 1   
    68    35    36 1   
    69    35    66 1   
    70    35    67 1   
    71    36    68 1   
    72    36    69 1   
@<TRIPOS>SUBSTRUCTURE
     1 7XN         1 TEMP              0 ****  ****    0 ROOT
