@<TRIPOS>MOLECULE
7XO
   63    67     1     0     0
SMALL
abcg2


@<TRIPOS>ATOM
      1 C4           2.3860    -0.5080    -0.0280 ca         1 7XO       0.153500
      2 C5           2.5190     0.8680     0.2100 ca         1 7XO      -0.041600
      3 C6           1.3350     1.5590     0.3240 ca         1 7XO       0.192900
      4 C8           4.4870     0.0920     0.0900 cc         1 7XO       0.671700
      5 N1           0.1670     0.9250     0.2160 nb         1 7XO      -0.243000
      6 N3           1.2580    -1.1630    -0.1430 nb         1 7XO      -0.261000
      7 CAP         -6.9120     1.4870    -0.4580 c6         1 7XO       0.158300
      8 CAN         -8.2800     1.9360     0.0390 c6         1 7XO       0.158300
      9 NBE         -9.2830     0.8870     0.0190 n3         1 7XO      -0.711600
     10 CAC         -9.7600     0.5680    -1.3130 c3         1 7XO       0.150100
     11 CAO         -8.7800    -0.2640     0.7450 c6         1 7XO       0.158300
     12 CAQ         -7.4210    -0.7600     0.2620 c6         1 7XO       0.158300
     13 NBF         -6.4560     0.3230     0.2960 nh         1 7XO      -0.776400
     14 CAY         -5.1040    -0.0150     0.1630 ca         1 7XO       0.256000
     15 CAL         -4.1090     0.9540     0.3380 ca         1 7XO      -0.128500
     16 CAJ         -2.7590     0.6590     0.2460 ca         1 7XO      -0.127000
     17 CAK         -4.6670    -1.3150    -0.1090 ca         1 7XO      -0.128500
     18 CAI         -3.3180    -1.6200    -0.1860 ca         1 7XO      -0.127000
     19 CAX         -2.3330    -0.6460    -0.0150 ca         1 7XO       0.292000
     20 C2           0.1710    -0.3870    -0.0060 ca         1 7XO       0.394900
     21 N7           3.8480     1.2120     0.2810 nd         1 7XO      -0.606100
     22 N9           3.6560    -1.0000    -0.1130 na         1 7XO      -0.330300
     23 CBD          3.9730    -2.4010    -0.4010 c3         1 7XO       0.090300
     24 CAB          4.7570    -2.5620    -1.6980 c3         1 7XO      -0.108600
     25 CAA          4.6210    -3.0950     0.7900 c3         1 7XO      -0.108600
     26 NAV          5.8320    -0.0680     0.0810 nu         1 7XO      -0.907200
     27 CAW          6.8290     0.9010     0.1940 ca         1 7XO       0.318000
     28 CAG          8.1460     0.4380     0.2750 ca         1 7XO      -0.155500
     29 CAE          9.2020     1.3270     0.3720 ca         1 7XO      -0.080000
     30 CAD          8.9690     2.6970     0.3900 ca         1 7XO      -0.141000
     31 CAF          7.6630     3.1550     0.3080 ca         1 7XO      -0.080000
     32 CAH          6.5910     2.2760     0.2110 ca         1 7XO      -0.155500
     33 H1           1.3020     2.6280     0.5050 h4         1 7XO       0.037100
     34 H2          -0.8830    -2.0500    -0.2830 hn         1 7XO       0.505000
     35 H3          -6.9480     1.2620    -1.5350 h1         1 7XO       0.039700
     36 H4          -6.2130     2.3120    -0.3330 h1         1 7XO       0.039700
     37 H5          -8.1770     2.2960     1.0680 h1         1 7XO       0.059450
     38 H6          -8.6240     2.7800    -0.5640 h1         1 7XO       0.059450
     39 H8          -9.0010     0.1700    -2.0000 h1         1 7XO       0.030700
     40 H9         -10.5590    -0.1720    -1.2460 h1         1 7XO       0.030700
     41 H10        -10.1770     1.4640    -1.7740 h1         1 7XO       0.030700
     42 H11         -8.6920     0.0090     1.8020 h1         1 7XO       0.059450
     43 H12         -9.5050    -1.0790     0.6820 h1         1 7XO       0.059450
     44 H13         -7.0950    -1.5600     0.9280 h1         1 7XO       0.039700
     45 H14         -7.5110    -1.1970    -0.7460 h1         1 7XO       0.039700
     46 H15         -4.3850     1.9740     0.5730 ha         1 7XO       0.113500
     47 H16         -2.0390     1.4480     0.3890 ha         1 7XO       0.128000
     48 H17         -5.3730    -2.1180    -0.2710 ha         1 7XO       0.113500
     49 H18         -3.0290    -2.6440    -0.3960 ha         1 7XO       0.128000
     50 H19          2.9960    -2.8590    -0.5560 h1         1 7XO       0.092700
     51 H20          5.7890    -2.2190    -1.6290 hc         1 7XO       0.047700
     52 H21          4.7900    -3.6180    -1.9620 hc         1 7XO       0.047700
     53 H22          4.2760    -2.0260    -2.5160 hc         1 7XO       0.047700
     54 H23          4.0080    -2.9890     1.6840 hc         1 7XO       0.047700
     55 H24          4.7210    -4.1590     0.5760 hc         1 7XO       0.047700
     56 H25          5.6190    -2.7200     1.0170 hc         1 7XO       0.047700
     57 H26          6.1750    -1.0140     0.0490 hn         1 7XO       0.501000
     58 H27          8.3430    -0.6290     0.2640 ha         1 7XO       0.130000
     59 H28         10.2120     0.9430     0.4350 ha         1 7XO       0.113000
     60 H29          9.7920     3.3930     0.4680 ha         1 7XO       0.115000
     61 H30          7.4630     4.2190     0.3210 ha         1 7XO       0.113000
     62 H31          5.5840     2.6560     0.1540 ha         1 7XO       0.130000
     63 N2          -1.0080    -1.0630    -0.1160 nu         1 7XO      -0.927900
@<TRIPOS>BOND
     1     1     2 ar  
     2     1     6 ar  
     3     1    22 1   
     4     2     3 ar  
     5     2    21 1   
     6     3     5 ar  
     7     3    33 1   
     8     4    21 2   
     9     4    22 1   
    10     4    26 1   
    11     5    20 ar  
    12     6    20 ar  
    13     7     8 1   
    14     7    13 1   
    15     7    35 1   
    16     7    36 1   
    17     8     9 1   
    18     8    37 1   
    19     8    38 1   
    20     9    10 1   
    21     9    11 1   
    22    10    39 1   
    23    10    40 1   
    24    10    41 1   
    25    11    12 1   
    26    11    42 1   
    27    11    43 1   
    28    12    13 1   
    29    12    44 1   
    30    12    45 1   
    31    13    14 1   
    32    14    15 ar  
    33    14    17 ar  
    34    15    16 ar  
    35    15    46 1   
    36    16    19 ar  
    37    16    47 1   
    38    17    18 ar  
    39    17    48 1   
    40    18    19 ar  
    41    18    49 1   
    42    19    63 1   
    43    20    63 1   
    44    22    23 1   
    45    23    24 1   
    46    23    25 1   
    47    23    50 1   
    48    24    51 1   
    49    24    52 1   
    50    24    53 1   
    51    25    54 1   
    52    25    55 1   
    53    25    56 1   
    54    26    27 1   
    55    26    57 1   
    56    27    28 ar  
    57    27    32 ar  
    58    28    29 ar  
    59    28    58 1   
    60    29    30 ar  
    61    29    59 1   
    62    30    31 ar  
    63    30    60 1   
    64    31    32 ar  
    65    31    61 1   
    66    32    62 1   
    67    34    63 1   
@<TRIPOS>SUBSTRUCTURE
     1 7XO         1 TEMP              0 ****  ****    0 ROOT
