@<TRIPOS>MOLECULE
7XO
   63    67     1     0     0
SMALL
No Charge or Current Charge


@<TRIPOS>ATOM
      1 C4           2.4540    -0.6250    -0.1450 ca         1 7XO       0.153500
      2 C5           2.5470     0.7440    -0.0530 ca         1 7XO      -0.041600
      3 C6           1.3610     1.4990    -0.0230 ca         1 7XO       0.192900
      4 C8           4.5660     0.0570    -0.0760 cc         1 7XO       0.671700
      5 N1           0.1610     0.8800    -0.0830 nb         1 7XO      -0.243000
      6 N3           1.2680    -1.2620    -0.2050 nb         1 7XO      -0.261000
      7 CAP         -6.9740     1.6010    -0.1490 c6         1 7XO       0.158300
      8 CAN         -8.3490     1.9470     0.5150 c6         1 7XO       0.158300
      9 NBE         -9.4160     0.9400     0.2230 n3         1 7XO      -0.711600
     10 CAC         -9.8920     0.9760    -1.1800 c3         1 7XO       0.150100
     11 CAO         -8.9400    -0.4120     0.6540 c6         1 7XO       0.158300
     12 CAQ         -7.5830    -0.8290    -0.0070 c6         1 7XO       0.158300
     13 NBF         -6.5120     0.2080     0.1610 nh         1 7XO      -0.776400
     14 CAY         -5.1400    -0.1310     0.0530 ca         1 7XO       0.256000
     15 CAL         -4.1690     0.6390     0.7220 ca         1 7XO      -0.128500
     16 CAJ         -2.8010     0.3160     0.6280 ca         1 7XO      -0.127000
     17 CAK         -4.7130    -1.2420    -0.7050 ca         1 7XO      -0.128500
     18 CAI         -3.3450    -1.5630    -0.7980 ca         1 7XO      -0.127000
     19 CAX         -2.3770    -0.7810    -0.1450 ca         1 7XO       0.292000
     20 C2           0.1770    -0.4700    -0.1600 ca         1 7XO       0.394900
     21 N7           3.8680     1.1920    -0.0030 nd         1 7XO      -0.606100
     22 N9           3.7480    -1.0680    -0.1550 na         1 7XO      -0.330300
     23 CBD          4.0960    -2.5060    -0.2380 c3         1 7XO       0.090300
     24 CAB          4.9150    -2.8420    -1.5030 c3         1 7XO      -0.108600
     25 CAA          4.7660    -3.0210     1.0550 c3         1 7XO      -0.108600
     26 NAV          5.9220     0.0020    -0.0280 nu         1 7XO      -0.907200
     27 CAW          6.9110     0.9730     0.1030 ca         1 7XO       0.318000
     28 CAG          8.0690     0.6700     0.8380 ca         1 7XO      -0.155500
     29 CAE          9.0960     1.6210     0.9760 ca         1 7XO      -0.080000
     30 CAD          8.9690     2.8810     0.3680 ca         1 7XO      -0.141000
     31 CAF          7.8200     3.1870    -0.3800 ca         1 7XO      -0.080000
     32 CAH          6.7960     2.2330    -0.5140 ca         1 7XO      -0.155500
     33 H1           1.3650     2.5860     0.0450 h4         1 7XO       0.037100
     34 H2          -0.8950    -2.1180    -0.5410 hn         1 7XO       0.505000
     35 H3          -7.0630     1.7230    -1.2390 h1         1 7XO       0.039700
     36 H4          -6.2360     2.3410     0.1920 h1         1 7XO       0.039700
     37 H5          -8.1920     2.0130     1.6020 h1         1 7XO       0.059450
     38 H6          -8.6620     2.9490     0.1860 h1         1 7XO       0.059450
     39 H8          -9.0870     0.7330    -1.8860 h1         1 7XO       0.030700
     40 H9         -10.7070     0.2550    -1.3290 h1         1 7XO       0.030700
     41 H10        -10.2760     1.9740    -1.4310 h1         1 7XO       0.030700
     42 H11         -8.8020    -0.4230     1.7450 h1         1 7XO       0.059450
     43 H12         -9.6970    -1.1790     0.4300 h1         1 7XO       0.059450
     44 H13         -7.2620    -1.7790     0.4450 h1         1 7XO       0.039700
     45 H14         -7.7500    -1.0200    -1.0770 h1         1 7XO       0.039700
     46 H15         -4.4740     1.4820     1.3350 ha         1 7XO       0.113500
     47 H16         -2.0830     0.9140     1.1790 ha         1 7XO       0.128000
     48 H17         -5.4340    -1.8560    -1.2350 ha         1 7XO       0.113500
     49 H18         -3.0390    -2.4200    -1.3920 ha         1 7XO       0.128000
     50 H19          3.1540    -3.0630    -0.3330 h1         1 7XO       0.092700
     51 H20          5.9080    -2.3790    -1.4780 hc         1 7XO       0.047700
     52 H21          5.0500    -3.9270    -1.5940 hc         1 7XO       0.047700
     53 H22          4.3940    -2.4910    -2.4010 hc         1 7XO       0.047700
     54 H23          4.1380    -2.8000     1.9260 hc         1 7XO       0.047700
     55 H24          4.9040    -4.1080     1.0060 hc         1 7XO       0.047700
     56 H25          5.7480    -2.5630     1.2140 hc         1 7XO       0.047700
     57 H26          6.2370    -0.9450     0.1420 hn         1 7XO       0.501000
     58 H27          8.1750    -0.3020     1.3110 ha         1 7XO       0.130000
     59 H28          9.9880     1.3810     1.5510 ha         1 7XO       0.113000
     60 H29          9.7630     3.6180     0.4720 ha         1 7XO       0.115000
     61 H30          7.7250     4.1600    -0.8580 ha         1 7XO       0.113000
     62 H31          5.9200     2.4730    -1.1080 ha         1 7XO       0.130000
     63 N2          -1.0300    -1.1480    -0.2570 nu         1 7XO      -0.927900
@<TRIPOS>BOND
     1     1     2 ar  
     2     1     6 ar  
     3     1    22 1   
     4     2     3 ar  
     5     2    21 1   
     6     3     5 ar  
     7     3    33 1   
     8     4    21 2   
     9     4    22 1   
    10     4    26 1   
    11     5    20 ar  
    12     6    20 ar  
    13     7     8 1   
    14     7    13 1   
    15     7    35 1   
    16     7    36 1   
    17     8     9 1   
    18     8    37 1   
    19     8    38 1   
    20     9    10 1   
    21     9    11 1   
    22    10    39 1   
    23    10    40 1   
    24    10    41 1   
    25    11    12 1   
    26    11    42 1   
    27    11    43 1   
    28    12    13 1   
    29    12    44 1   
    30    12    45 1   
    31    13    14 1   
    32    14    15 ar  
    33    14    17 ar  
    34    15    16 ar  
    35    15    46 1   
    36    16    19 ar  
    37    16    47 1   
    38    17    18 ar  
    39    17    48 1   
    40    18    19 ar  
    41    18    49 1   
    42    19    63 1   
    43    20    63 1   
    44    22    23 1   
    45    23    24 1   
    46    23    25 1   
    47    23    50 1   
    48    24    51 1   
    49    24    52 1   
    50    24    53 1   
    51    25    54 1   
    52    25    55 1   
    53    25    56 1   
    54    26    27 1   
    55    26    57 1   
    56    27    28 ar  
    57    27    32 ar  
    58    28    29 ar  
    59    28    58 1   
    60    29    30 ar  
    61    29    59 1   
    62    30    31 ar  
    63    30    60 1   
    64    31    32 ar  
    65    31    61 1   
    66    32    62 1   
    67    34    63 1   
@<TRIPOS>SUBSTRUCTURE
     1 7XO         1 TEMP              0 ****  ****    0 ROOT
