@<TRIPOS>MOLECULE
7XP
   65    67     1     0     0
SMALL
bcc


@<TRIPOS>ATOM
      1 C4          -5.5280    -0.8100     0.2230 c6         1 7XP       0.075100
      2 C5          -4.8630     0.4990     0.6530 c6         1 7XP       0.123100
      3 C6          -5.7830     1.3630     1.4860 c3         1 7XP       0.143400
      4 N2          -2.2760    -2.6220    -0.4130 n8         1 7XP      -0.881800
      5 C3          -4.5120    -1.6620    -0.5240 c6         1 7XP       0.152100
      6 OAH          4.5760    -1.4980    -1.8000 oh         1 7XP      -0.575800
      7 CAX          4.8860    -0.3300    -1.0850 c6         1 7XP       0.144100
      8 CAU          6.2000    -0.5450    -0.3270 c6         1 7XP       0.164500
      9 NAC          6.6860     0.7580     0.1020 n8         1 7XP      -0.903800
     10 CAT          6.0090    -1.4150     0.9210 c6         1 7XP       0.122100
     11 OAF          5.8790    -2.7560     0.5120 oh         1 7XP      -0.567800
     12 CAL          4.8080    -0.9350     1.7230 c6         1 7XP       0.120400
     13 OAN          3.6430    -0.8700     0.9280 os         1 7XP      -0.429600
     14 CBC          3.7740     0.0630    -0.1150 c6         1 7XP       0.319900
     15 OAQ          2.5800     0.0690    -0.8130 os         1 7XP      -0.416600
     16 CBE          1.5480     0.9190    -0.3420 c6         1 7XP       0.129100
     17 CAZ          0.2600     0.0980    -0.3810 c6         1 7XP       0.126100
     18 OAJ          0.3470    -0.9940     0.5060 oh         1 7XP      -0.612800
     19 CAS          1.4480     2.1720    -1.2010 c6         1 7XP       0.136500
     20 NAB          2.7060     2.9000    -1.1630 n8         1 7XP      -0.880800
     21 CAM          0.2390     2.9820    -0.7430 c6         1 7XP      -0.115400
     22 CAR         -1.0680     2.2030    -0.8140 c6         1 7XP       0.171500
     23 NAA         -2.1370     3.0370    -0.2900 n8         1 7XP      -0.889800
     24 CBD         -0.9700     0.9170     0.0020 c6         1 7XP       0.162100
     25 O1          -2.1360     0.1480    -0.2490 os         1 7XP      -0.426600
     26 C1          -2.7140    -0.5360     0.8170 c6         1 7XP       0.342900
     27 O5          -3.7150     0.2250     1.4370 os         1 7XP      -0.412600
     28 O6          -5.1510     2.5960     1.7360 oh         1 7XP      -0.578800
     29 O4          -6.6150    -0.5820    -0.6490 oh         1 7XP      -0.600800
     30 O3          -5.0390    -2.9270    -0.8500 oh         1 7XP      -0.597800
     31 C2          -3.2730    -1.8780     0.3330 c6         1 7XP       0.157500
     32 H1          -5.8530    -1.3560     1.1210 h1         1 7XP       0.048700
     33 H2          -4.5930     1.0550    -0.2560 h1         1 7XP       0.064700
     34 H3          -6.7220     1.5000     0.9360 h1         1 7XP       0.021700
     35 H4          -6.0300     0.8320     2.4160 h1         1 7XP       0.021700
     36 H5          -1.3770    -2.5620     0.0470 hn         1 7XP       0.356300
     37 H6          -2.5300    -3.6000    -0.4240 hn         1 7XP       0.356300
     38 H8          -4.2120    -1.1210    -1.4360 h1         1 7XP       0.071700
     39 H9           3.7260    -1.3620    -2.2310 ho         1 7XP       0.420000
     40 H11          6.8990    -1.0640    -0.9990 h1         1 7XP       0.060700
     41 H12          7.5760     0.6510     0.5720 hn         1 7XP       0.346800
     42 H13          6.8730     1.3350    -0.7090 hn         1 7XP       0.346800
     43 H15          6.8970    -1.2910     1.5600 h1         1 7XP       0.025700
     44 H16          5.8630    -3.3070     1.3000 ho         1 7XP       0.400000
     45 H17          4.5980    -1.6210     2.5470 h1         1 7XP       0.051700
     46 H18          5.0380     0.0440     2.1620 h1         1 7XP       0.051700
     47 H19          4.0050     1.0560     0.2980 h2         1 7XP       0.055700
     48 H20          1.7440     1.2160     0.6990 h1         1 7XP       0.056700
     49 H21          0.1180    -0.2520    -1.4160 h1         1 7XP       0.059700
     50 H22          1.1450    -1.4890     0.2910 ho         1 7XP       0.435000
     51 H23          1.2900     1.8560    -2.2390 h1         1 7XP       0.072700
     52 H24          2.6840     3.6430    -1.8510 hn         1 7XP       0.339800
     53 H25          2.8060     3.3610    -0.2650 hn         1 7XP       0.339800
     54 H27          0.3970     3.3240     0.2870 hc         1 7XP       0.051700
     55 H28          0.1550     3.8810    -1.3610 hc         1 7XP       0.051700
     56 H29         -1.2310     1.9090    -1.8650 h1         1 7XP       0.030700
     57 H30         -2.2830     3.8200    -0.9160 hn         1 7XP       0.351300
     58 H31         -3.0100     2.5290    -0.2760 hn         1 7XP       0.351300
     59 H33         -0.9060     1.1900     1.0660 h1         1 7XP       0.070700
     60 H34         -1.9760    -0.7160     1.6050 h2         1 7XP       0.086700
     61 H35         -5.7640     3.1470     2.2300 ho         1 7XP       0.402000
     62 H36         -7.4190    -0.4860    -0.1330 ho         1 7XP       0.408000
     63 H37         -5.8250    -2.7870    -1.3880 ho         1 7XP       0.416000
     64 H38         -3.5950    -2.4000     1.2480 h1         1 7XP       0.033700
     65 H10          5.0220     0.5220    -1.7700 h1         1 7XP       0.043700
@<TRIPOS>BOND
     1     1     2 1   
     2     1     5 1   
     3     1    29 1   
     4     1    32 1   
     5     2     3 1   
     6     2    27 1   
     7     2    33 1   
     8     3    28 1   
     9     3    34 1   
    10     3    35 1   
    11     4    31 1   
    12     4    36 1   
    13     4    37 1   
    14     5    30 1   
    15     5    31 1   
    16     5    38 1   
    17     6     7 1   
    18     6    39 1   
    19     7     8 1   
    20     7    14 1   
    21     7    65 1   
    22     8     9 1   
    23     8    10 1   
    24     8    40 1   
    25     9    41 1   
    26     9    42 1   
    27    10    11 1   
    28    10    12 1   
    29    10    43 1   
    30    11    44 1   
    31    12    13 1   
    32    12    45 1   
    33    12    46 1   
    34    13    14 1   
    35    14    15 1   
    36    14    47 1   
    37    15    16 1   
    38    16    17 1   
    39    16    19 1   
    40    16    48 1   
    41    17    18 1   
    42    17    24 1   
    43    17    49 1   
    44    18    50 1   
    45    19    20 1   
    46    19    21 1   
    47    19    51 1   
    48    20    52 1   
    49    20    53 1   
    50    21    22 1   
    51    21    54 1   
    52    21    55 1   
    53    22    23 1   
    54    22    24 1   
    55    22    56 1   
    56    23    57 1   
    57    23    58 1   
    58    24    25 1   
    59    24    59 1   
    60    25    26 1   
    61    26    27 1   
    62    26    31 1   
    63    26    60 1   
    64    28    61 1   
    65    29    62 1   
    66    30    63 1   
    67    31    64 1   
@<TRIPOS>SUBSTRUCTURE
     1 7XP         1 TEMP              0 ****  ****    0 ROOT
