@<TRIPOS>MOLECULE
7XP
   65    67     1     0     0
SMALL
No Charge or Current Charge


@<TRIPOS>ATOM
      1 C4          -5.6060    -0.9190     0.3880 c6         1 7XP       0.098300
      2 C5          -4.9400     0.4030     0.8870 c6         1 7XP       0.146300
      3 C6          -5.8200     1.1650     1.9350 c3         1 7XP       0.166600
      4 N2          -2.2730    -2.5500    -0.8870 n8         1 7XP      -0.992200
      5 C3          -4.6440    -1.6380    -0.6050 c6         1 7XP       0.175300
      6 OAH          4.6640    -1.9530    -1.3850 oh         1 7XP      -0.698000
      7 CAX          4.9940    -0.6090    -0.9430 c6         1 7XP       0.167300
      8 CAU          6.2840    -0.6290    -0.0480 c6         1 7XP       0.164500
      9 NAC          6.8420     0.7410     0.1770 n8         1 7XP      -1.014200
     10 CAT          5.9730    -1.3640     1.3030 c6         1 7XP       0.145300
     11 OAF          5.7080    -2.7520     1.0350 oh         1 7XP      -0.690000
     12 CAL          4.7360    -0.6890     1.9760 c6         1 7XP       0.143600
     13 OAN          3.5930    -0.7140     1.0860 os         1 7XP      -0.476000
     14 CBC          3.8090     0.0280    -0.1350 c6         1 7XP       0.366300
     15 OAQ          2.5910    -0.0800    -0.8980 os         1 7XP      -0.463000
     16 CBE          1.5320     0.8370    -0.5160 c6         1 7XP       0.152300
     17 CAZ          0.1670     0.1180    -0.7050 c6         1 7XP       0.149300
     18 OAJ          0.2140    -1.1570    -0.0280 oh         1 7XP      -0.735000
     19 CAS          1.5720     2.1860    -1.3200 c6         1 7XP       0.136500
     20 NAB          2.8420     2.9410    -1.1570 n8         1 7XP      -0.991200
     21 CAM          0.3900     3.1010    -0.9090 c6         1 7XP      -0.115400
     22 CAR         -0.9740     2.3810    -1.0580 c6         1 7XP       0.171500
     23 NAA         -2.0680     3.2990    -0.6630 n8         1 7XP      -1.000200
     24 CBD         -1.0140     1.0440    -0.2420 c6         1 7XP       0.185300
     25 O1          -2.3170     0.4130    -0.3970 os         1 7XP      -0.473000
     26 C1          -2.6900    -0.5230     0.6400 c6         1 7XP       0.389300
     27 O5          -3.6600     0.1040     1.5070 os         1 7XP      -0.459000
     28 O6          -5.1920     2.3520     2.4550 oh         1 7XP      -0.701000
     29 O4          -6.8800    -0.6840    -0.2560 oh         1 7XP      -0.723000
     30 O3          -5.2610    -2.8690    -1.0370 oh         1 7XP      -0.660000
     31 C2          -3.2420    -1.8780     0.0500 c6         1 7XP       0.157500
     32 H1          -5.7470    -1.5760     1.2600 h1         1 7XP       0.048700
     33 H2          -4.7770     1.0730     0.0310 h1         1 7XP       0.064700
     34 H3          -6.7720     1.4330     1.4580 h1         1 7XP       0.021700
     35 H4          -6.0500     0.4740     2.7570 h1         1 7XP       0.021700
     36 H5          -1.3300    -2.1840    -0.6730 hn         1 7XP       0.411500
     37 H6          -2.2150    -3.5450    -0.6440 hn         1 7XP       0.411500
     38 H8          -4.4990    -0.9740    -1.4710 h1         1 7XP       0.071700
     39 H9           3.7720    -1.8740    -1.8020 ho         1 7XP       0.519000
     40 H11          7.0650    -1.1970    -0.5790 h1         1 7XP       0.060700
     41 H12          7.7200     0.6620     0.7050 hn         1 7XP       0.402000
     42 H13          7.1480     1.1310    -0.7240 hn         1 7XP       0.402000
     43 H15          6.8380    -1.2770     1.9770 h1         1 7XP       0.025700
     44 H16          5.2080    -2.7340     0.1750 ho         1 7XP       0.499000
     45 H17          4.4800    -1.2240     2.9010 h1         1 7XP       0.051700
     46 H18          4.9670     0.3520     2.2450 h1         1 7XP       0.051700
     47 H19          4.0400     1.0780     0.0930 h2         1 7XP       0.055700
     48 H20          1.6360     1.0680     0.5560 h1         1 7XP       0.056700
     49 H21          0.0390    -0.0570    -1.7840 h1         1 7XP       0.059700
     50 H22          1.1800    -1.3700     0.0260 ho         1 7XP       0.534000
     51 H23          1.4730     1.9390    -2.3900 h1         1 7XP       0.072700
     52 H24          2.8340     3.7480    -1.7920 hn         1 7XP       0.395000
     53 H25          2.8590     3.3720    -0.2260 hn         1 7XP       0.395000
     54 H27          0.5180     3.4310     0.1320 hc         1 7XP       0.051700
     55 H28          0.3940     4.0100    -1.5280 hc         1 7XP       0.051700
     56 H29         -1.1340     2.1310    -2.1190 h1         1 7XP       0.030700
     57 H30         -2.3420     3.8590    -1.4790 hn         1 7XP       0.406500
     58 H31         -2.8970     2.7200    -0.4800 hn         1 7XP       0.406500
     59 H33         -0.8730     1.2950     0.8200 h1         1 7XP       0.070700
     60 H34         -1.8090    -0.7690     1.2510 h2         1 7XP       0.086700
     61 H35         -5.7880     2.7100     3.1540 ho         1 7XP       0.501000
     62 H36         -7.5630    -0.5920     0.4510 ho         1 7XP       0.507000
     63 H37         -6.2070    -2.6300    -1.1650 ho         1 7XP       0.455000
     64 H38         -3.3680    -2.5620     0.9030 h1         1 7XP       0.033700
     65 H10          5.1890     0.0240    -1.8210 h1         1 7XP       0.043700
@<TRIPOS>BOND
     1     1     2 1   
     2     1     5 1   
     3     1    29 1   
     4     1    32 1   
     5     2     3 1   
     6     2    27 1   
     7     2    33 1   
     8     3    28 1   
     9     3    34 1   
    10     3    35 1   
    11     4    31 1   
    12     4    36 1   
    13     4    37 1   
    14     5    30 1   
    15     5    31 1   
    16     5    38 1   
    17     6     7 1   
    18     6    39 1   
    19     7     8 1   
    20     7    14 1   
    21     7    65 1   
    22     8     9 1   
    23     8    10 1   
    24     8    40 1   
    25     9    41 1   
    26     9    42 1   
    27    10    11 1   
    28    10    12 1   
    29    10    43 1   
    30    11    44 1   
    31    12    13 1   
    32    12    45 1   
    33    12    46 1   
    34    13    14 1   
    35    14    15 1   
    36    14    47 1   
    37    15    16 1   
    38    16    17 1   
    39    16    19 1   
    40    16    48 1   
    41    17    18 1   
    42    17    24 1   
    43    17    49 1   
    44    18    50 1   
    45    19    20 1   
    46    19    21 1   
    47    19    51 1   
    48    20    52 1   
    49    20    53 1   
    50    21    22 1   
    51    21    54 1   
    52    21    55 1   
    53    22    23 1   
    54    22    24 1   
    55    22    56 1   
    56    23    57 1   
    57    23    58 1   
    58    24    25 1   
    59    24    59 1   
    60    25    26 1   
    61    26    27 1   
    62    26    31 1   
    63    26    60 1   
    64    28    61 1   
    65    29    62 1   
    66    30    63 1   
    67    31    64 1   
@<TRIPOS>SUBSTRUCTURE
     1 7XP         1 TEMP              0 ****  ****    0 ROOT
