@<TRIPOS>MOLECULE
7XQ
   37    39     1     0     0
SMALL
No Charge or Current Charge


@<TRIPOS>ATOM
      1 C2         176.7950   125.1280   223.2150 ca         1 7XQ       0.178900
      2 C4         176.5070   124.6510   220.9950 ca         1 7XQ       0.446900
      3 C6         177.7380   125.2840   220.7240 ca         1 7XQ      -0.094600
      4 C8         179.5160   126.1270   219.8520 cc         1 7XQ       0.421700
      5 C10        180.6420   127.0620   221.9570 c5         1 7XQ       0.028300
      6 C11        182.1010   126.6720   221.5700 c5         1 7XQ       0.131300
      7 C13        182.9800   127.8140   222.2050 c5         1 7XQ       0.136300
      8 C15        181.9660   128.9590   222.5520 c5         1 7XQ      -0.094700
      9 C16        182.5230   130.3970   222.3450 c3         1 7XQ      -0.062400
     10 C17        181.5280   131.5420   222.6420 c3         1 7XQ       0.161600
     11 C19        180.7080   128.5950   221.7130 c5         1 7XQ       0.180300
     12 C21        178.4360   125.8180   221.7780 ca         1 7XQ       0.130500
     13 F20        180.8870   128.9020   220.3580 f          1 7XQ      -0.277000
     14 N1         177.9840   125.7550   223.0460 nb         1 7XQ      -0.225000
     15 N3         176.0300   124.5670   222.2470 nb         1 7XQ      -0.298000
     16 N5         175.7410   124.0880   220.0220 nv         1 7XQ      -1.067900
     17 N7         178.3970   125.4630   219.5030 nd         1 7XQ      -0.555100
     18 N9         179.5690   126.3560   221.2340 na         1 7XQ      -0.273300
     19 O12        182.4930   125.3970   222.0790 oh         1 7XQ      -0.635000
     20 O14        183.6510   127.3570   223.3900 oh         1 7XQ      -0.662000
     21 O18        181.1140   131.5000   224.0130 oh         1 7XQ      -0.671000
     22 H1         176.4160   125.0670   224.2340 h5         1 7XQ       0.047100
     23 H2         180.2950   126.4610   219.1760 h5         1 7XQ       0.073800
     24 H3         180.5020   126.8820   223.0320 h1         1 7XQ       0.111700
     25 H4         182.2220   126.6920   220.4780 h1         1 7XQ       0.085700
     26 H5         183.7140   128.1570   221.4610 h1         1 7XQ       0.055700
     27 H6         181.6970   128.8950   223.6140 hc         1 7XQ       0.100700
     28 H7         183.4100   130.5410   222.9740 hc         1 7XQ       0.058700
     29 H8         182.8680   130.5120   221.3100 hc         1 7XQ       0.058700
     30 H9         182.0170   132.5010   222.4250 h1         1 7XQ       0.027200
     31 H10        180.6590   131.4550   221.9760 h1         1 7XQ       0.027200
     32 H11        179.8050   129.1110   222.0670 h1         1 7XQ       0.086700
     33 H12        175.0400   123.4060   220.3020 hn         1 7XQ       0.507000
     34 H13        176.1780   123.9460   219.1150 hn         1 7XQ       0.507000
     35 H14        183.0900   125.6380   222.8300 ho         1 7XQ       0.456000
     36 H15        184.2190   128.0970   223.7040 ho         1 7XQ       0.453000
     37 H16        180.5250   132.2730   224.1590 ho         1 7XQ       0.444000
@<TRIPOS>BOND
     1     1    14 ar  
     2     1    15 ar  
     3     1    22 1   
     4     2     3 ar  
     5     2    15 ar  
     6     2    16 1   
     7     3    12 ar  
     8     3    17 1   
     9     4    17 2   
    10     4    18 1   
    11     4    23 1   
    12     5     6 1   
    13     5    11 1   
    14     5    18 1   
    15     5    24 1   
    16     6     7 1   
    17     6    19 1   
    18     6    25 1   
    19     7     8 1   
    20     7    20 1   
    21     7    26 1   
    22     8     9 1   
    23     8    11 1   
    24     8    27 1   
    25     9    10 1   
    26     9    28 1   
    27     9    29 1   
    28    10    21 1   
    29    10    30 1   
    30    10    31 1   
    31    11    13 1   
    32    11    32 1   
    33    12    14 ar  
    34    12    18 1   
    35    16    33 1   
    36    16    34 1   
    37    19    35 1   
    38    20    36 1   
    39    21    37 1   
@<TRIPOS>SUBSTRUCTURE
     1 7XQ         1 TEMP              0 ****  ****    0 ROOT
