@<TRIPOS>MOLECULE
7XQ
   37    39     1     0     0
SMALL
abcg2


@<TRIPOS>ATOM
      1 C2         177.0610   124.8880   223.1860 ca         1 7XQ       0.178900
      2 C4         176.6510   124.5190   220.9390 ca         1 7XQ       0.446900
      3 C6         177.8030   125.2810   220.6620 ca         1 7XQ      -0.094600
      4 C8         179.4690   126.3520   219.8700 cc         1 7XQ       0.421700
      5 C10        180.5710   127.1720   222.0120 c5         1 7XQ       0.028300
      6 C11        182.0170   126.7420   221.7240 c5         1 7XQ       0.131300
      7 C13        182.8700   127.8760   222.3650 c5         1 7XQ       0.136300
      8 C15        181.9120   129.0710   222.5570 c5         1 7XQ      -0.094700
      9 C16        182.5030   130.4210   222.1620 c3         1 7XQ      -0.062400
     10 C17        181.6110   131.6060   222.4830 c3         1 7XQ       0.161600
     11 C19        180.6160   128.6860   221.8480 c5         1 7XQ       0.180300
     12 C21        178.4910   125.7910   221.7610 ca         1 7XQ       0.130500
     13 F20        180.6970   128.9890   220.4660 f          1 7XQ      -0.277000
     14 N1         178.1620   125.6240   223.0470 nb         1 7XQ      -0.225000
     15 N3         176.3050   124.3390   222.2280 nb         1 7XQ      -0.298000
     16 N5         175.8850   123.9780   219.9770 nv         1 7XQ      -1.067900
     17 N7         178.4330   125.6450   219.4860 nd         1 7XQ      -0.555100
     18 N9         179.5610   126.4820   221.2390 na         1 7XQ      -0.273300
     19 O12        182.3360   125.4490   222.1850 oh         1 7XQ      -0.635000
     20 O14        183.3690   127.4830   223.6450 oh         1 7XQ      -0.662000
     21 O18        181.4080   131.6580   223.9010 oh         1 7XQ      -0.671000
     22 H1         176.7320   124.7060   224.2040 h5         1 7XQ       0.047100
     23 H2         180.1940   126.8030   219.2140 h5         1 7XQ       0.073800
     24 H3         180.3450   126.9660   223.0600 h1         1 7XQ       0.111700
     25 H4         182.1830   126.7380   220.6470 h1         1 7XQ       0.085700
     26 H5         183.7070   128.1310   221.7130 h1         1 7XQ       0.055700
     27 H6         181.6660   129.0940   223.6210 hc         1 7XQ       0.100700
     28 H7         183.4570   130.5440   222.6820 hc         1 7XQ       0.058700
     29 H8         182.7190   130.4300   221.0910 hc         1 7XQ       0.058700
     30 H9         182.0920   132.5260   222.1360 h1         1 7XQ       0.027200
     31 H10        180.6490   131.5150   221.9680 h1         1 7XQ       0.027200
     32 H11        179.7320   129.1960   222.2210 h1         1 7XQ       0.086700
     33 H12        175.1090   123.3900   220.2300 hn         1 7XQ       0.507000
     34 H13        176.1550   124.0410   219.0110 hn         1 7XQ       0.507000
     35 H14        182.4870   125.5180   223.1400 ho         1 7XQ       0.456000
     36 H15        184.2240   127.0510   223.5260 ho         1 7XQ       0.453000
     37 H16        180.7800   132.3650   224.0920 ho         1 7XQ       0.444000
@<TRIPOS>BOND
     1     1    14 ar  
     2     1    15 ar  
     3     1    22 1   
     4     2     3 ar  
     5     2    15 ar  
     6     2    16 1   
     7     3    12 ar  
     8     3    17 1   
     9     4    17 2   
    10     4    18 1   
    11     4    23 1   
    12     5     6 1   
    13     5    11 1   
    14     5    18 1   
    15     5    24 1   
    16     6     7 1   
    17     6    19 1   
    18     6    25 1   
    19     7     8 1   
    20     7    20 1   
    21     7    26 1   
    22     8     9 1   
    23     8    11 1   
    24     8    27 1   
    25     9    10 1   
    26     9    28 1   
    27     9    29 1   
    28    10    21 1   
    29    10    30 1   
    30    10    31 1   
    31    11    13 1   
    32    11    32 1   
    33    12    14 ar  
    34    12    18 1   
    35    16    33 1   
    36    16    34 1   
    37    19    35 1   
    38    20    36 1   
    39    21    37 1   
@<TRIPOS>SUBSTRUCTURE
     1 7XQ         1 TEMP              0 ****  ****    0 ROOT
