@<TRIPOS>MOLECULE
7XR
   67    72     1     0     0
SMALL
bcc


@<TRIPOS>ATOM
      1 C4           2.0400    -0.2260     0.0590 ca         1 7XR       0.482800
      2 C5           2.0660     1.1750     0.0840 ca         1 7XR      -0.173200
      3 C6           0.8320     1.7830     0.1310 ca         1 7XR       0.521200
      4 C8           4.0860     0.5460     0.0040 cc         1 7XR       0.668700
      5 N1          -0.2830     1.0520     0.1460 nb         1 7XR      -0.767000
      6 N3           0.9670    -0.9770     0.0740 nb         1 7XR      -0.785000
      7 CAR         -7.6750    -0.8900    -0.7140 c6         1 7XR       0.194300
      8 CAP         -9.0370    -0.2890    -1.0120 c6         1 7XR       0.158300
      9 NBG         -9.6470     0.2370     0.1900 n3         1 7XR      -0.715600
     10 CAA        -10.9760     0.7430    -0.0620 c3         1 7XR       0.152100
     11 CAQ         -8.7900     1.2450     0.7760 c6         1 7XR       0.158300
     12 CAS         -7.4250     0.6680     1.0960 c6         1 7XR       0.194300
     13 NBH         -6.8150     0.0980    -0.0970 nh         1 7XR      -0.643000
     14 CBA         -5.4480    -0.1960    -0.0220 ca         1 7XR       0.121600
     15 CAJ         -4.5350     0.7860     0.3770 ca         1 7XR      -0.147000
     16 CAH         -3.1720     0.5510     0.4360 ca         1 7XR      -0.140500
     17 CAI         -4.9190    -1.4430    -0.3650 ca         1 7XR      -0.147000
     18 CAG         -3.5540    -1.6780    -0.3300 ca         1 7XR      -0.140500
     19 CAZ         -2.6510    -0.6940     0.0720 ca         1 7XR       0.149600
     20 C2          -0.1770    -0.2740     0.1130 ca         1 7XR       0.919900
     21 N7           3.3640     1.6290     0.0480 nd         1 7XR      -0.606100
     22 N9           3.3440    -0.6260     0.0110 na         1 7XR      -0.295000
     23 CBF          3.7880    -2.0110    -0.0000 c5         1 7XR       0.052000
     24 CAN          4.5700    -2.4260     1.2600 c5         1 7XR      -0.101400
     25 CAL          5.5310    -3.5010     0.7600 c5         1 7XR      -0.083900
     26 CAM          5.9650    -2.9800    -0.6090 c5         1 7XR      -0.083900
     27 CAO          4.6790    -2.4010    -1.2100 c5         1 7XR      -0.101400
     28 NAX          5.4390     0.4820    -0.0510 nu         1 7XR      -0.715600
     29 CAY          6.3680     1.5210    -0.0910 ca         1 7XR       0.179600
     30 CAE          7.7080     1.1540    -0.2520 ca         1 7XR      -0.174500
     31 CAC          8.7010     2.1160    -0.2960 ca         1 7XR      -0.098000
     32 CAB          8.3810     3.4630    -0.1810 ca         1 7XR      -0.159000
     33 CAD          7.0520     3.8260    -0.0210 ca         1 7XR      -0.098000
     34 CAF          6.0420     2.8730     0.0270 ca         1 7XR      -0.174500
     35 H1           0.7170     2.8610     0.1560 h4         1 7XR       0.037100
     36 H2          -1.1110    -2.0290     0.0100 hn         1 7XR       0.449800
     37 H4          -7.2340    -1.2190    -1.6550 h1         1 7XR       0.042700
     38 H5          -8.9230     0.4900    -1.7870 h1         1 7XR       0.039200
     39 H6          -9.6780    -1.0680    -1.4310 h1         1 7XR       0.039200
     40 H8         -11.6080    -0.0500    -0.4660 h1         1 7XR       0.031033
     41 H9         -11.4280     1.0880     0.8700 h1         1 7XR       0.031033
     42 H10        -10.9940     1.5830    -0.7730 h1         1 7XR       0.031033
     43 H11         -8.6690     2.1170     0.1090 h1         1 7XR       0.039200
     44 H12         -9.2420     1.6090     1.7020 h1         1 7XR       0.039200
     45 H13         -6.7980     1.4640     1.4950 h1         1 7XR       0.042700
     46 H14         -7.5290    -0.0930     1.8840 h1         1 7XR       0.042700
     47 H15         -4.8880     1.7750     0.6400 ha         1 7XR       0.132000
     48 H16         -2.5150     1.3480     0.7440 ha         1 7XR       0.144000
     49 H17         -5.5610    -2.2580    -0.6690 ha         1 7XR       0.132000
     50 H18         -3.1870    -2.6570    -0.6170 ha         1 7XR       0.144000
     51 H19          2.8660    -2.5880    -0.0450 h1         1 7XR       0.094700
     52 H20          5.1310    -1.5840     1.6730 hc         1 7XR       0.060200
     53 H21          3.9030    -2.7730     2.0500 hc         1 7XR       0.060200
     54 H22          6.3670    -3.6640     1.4410 hc         1 7XR       0.048700
     55 H23          5.0080    -4.4540     0.6480 hc         1 7XR       0.048700
     56 H24          6.7340    -2.2080    -0.4850 hc         1 7XR       0.048700
     57 H25          6.4100    -3.7480    -1.2400 hc         1 7XR       0.048700
     58 H26          4.1640    -3.1630    -1.7940 hc         1 7XR       0.060200
     59 H27          4.8560    -1.5670    -1.8920 hc         1 7XR       0.060200
     60 H28          5.8420    -0.4370    -0.1290 hn         1 7XR       0.449800
     61 H29          7.9740     0.1070    -0.3470 ha         1 7XR       0.148000
     62 H30          9.7300     1.8070    -0.4230 ha         1 7XR       0.130500
     63 H31          9.1560     4.2170    -0.2170 ha         1 7XR       0.133000
     64 H32          6.7850     4.8700     0.0710 ha         1 7XR       0.130500
     65 H33          5.0160     3.1780     0.1530 ha         1 7XR       0.148000
     66 N2          -1.3020    -1.0450     0.1130 nu         1 7XR      -0.734300
     67 H3          -7.8010    -1.7810    -0.0800 h1         1 7XR       0.042700
@<TRIPOS>BOND
     1     1     2 ar  
     2     1     6 ar  
     3     1    22 1   
     4     2     3 ar  
     5     2    21 1   
     6     3     5 ar  
     7     3    35 1   
     8     4    21 2   
     9     4    22 1   
    10     4    28 1   
    11     5    20 ar  
    12     6    20 ar  
    13     7     8 1   
    14     7    13 1   
    15     7    37 1   
    16     7    67 1   
    17     8     9 1   
    18     8    38 1   
    19     8    39 1   
    20     9    10 1   
    21     9    11 1   
    22    10    40 1   
    23    10    41 1   
    24    10    42 1   
    25    11    12 1   
    26    11    43 1   
    27    11    44 1   
    28    12    13 1   
    29    12    45 1   
    30    12    46 1   
    31    13    14 1   
    32    14    15 ar  
    33    14    17 ar  
    34    15    16 ar  
    35    15    47 1   
    36    16    19 ar  
    37    16    48 1   
    38    17    18 ar  
    39    17    49 1   
    40    18    19 ar  
    41    18    50 1   
    42    19    66 1   
    43    20    66 1   
    44    22    23 1   
    45    23    24 1   
    46    23    27 1   
    47    23    51 1   
    48    24    25 1   
    49    24    52 1   
    50    24    53 1   
    51    25    26 1   
    52    25    54 1   
    53    25    55 1   
    54    26    27 1   
    55    26    56 1   
    56    26    57 1   
    57    27    58 1   
    58    27    59 1   
    59    28    29 1   
    60    28    60 1   
    61    29    30 ar  
    62    29    34 ar  
    63    30    31 ar  
    64    30    61 1   
    65    31    32 ar  
    66    31    62 1   
    67    32    33 ar  
    68    32    63 1   
    69    33    34 ar  
    70    33    64 1   
    71    34    65 1   
    72    36    66 1   
@<TRIPOS>SUBSTRUCTURE
     1 7XR         1 TEMP              0 ****  ****    0 ROOT
