@<TRIPOS>MOLECULE
7XR
   67    72     1     0     0
SMALL
No Charge or Current Charge


@<TRIPOS>ATOM
      1 C4           2.1100    -0.2990    -0.0220 ca         1 7XR       0.154500
      2 C5           2.1060     1.0670    -0.1770 ca         1 7XR      -0.042600
      3 C6           0.8710     1.7280    -0.3040 ca         1 7XR       0.192900
      4 C8           4.1590     0.5280    -0.0290 cc         1 7XR       0.668700
      5 N1          -0.2820     1.0240    -0.2700 nb         1 7XR      -0.241000
      6 N3           0.9730    -1.0190     0.0140 nb         1 7XR      -0.259000
      7 CAR         -7.8210    -0.7140    -0.9990 c6         1 7XR       0.194300
      8 CAP         -9.1650     0.0690    -1.1610 c6         1 7XR       0.158300
      9 NBG         -9.8540     0.3160     0.1420 n3         1 7XR      -0.715600
     10 CAA        -11.1450     1.0190    -0.0190 c3         1 7XR       0.152100
     11 CAQ         -8.9260     1.0210     1.0780 c6         1 7XR       0.158300
     12 CAS         -7.5770     0.2580     1.2860 c6         1 7XR       0.194300
     13 NBH         -6.8960    -0.0770    -0.0070 nh         1 7XR      -0.781400
     14 CBA         -5.5030    -0.3310    -0.0290 ca         1 7XR       0.260000
     15 CAJ         -4.6070     0.6170     0.5000 ca         1 7XR      -0.129000
     16 CAH         -3.2180     0.3840     0.4860 ca         1 7XR      -0.122500
     17 CAI         -4.9800    -1.5220    -0.5730 ca         1 7XR      -0.129000
     18 CAG         -3.5910    -1.7550    -0.5850 ca         1 7XR      -0.122500
     19 CAZ         -2.6980    -0.8010    -0.0690 ca         1 7XR       0.288000
     20 C2          -0.1710    -0.3130    -0.1010 ca         1 7XR       0.393900
     21 N7           3.3900     1.6060    -0.1900 nd         1 7XR      -0.606100
     22 N9           3.4270    -0.6580     0.0650 na         1 7XR      -0.324300
     23 CBF          3.9430    -2.0270     0.2270 c5         1 7XR       0.081300
     24 CAN          4.7260    -2.2890     1.5490 c5         1 7XR      -0.101400
     25 CAL          5.5300    -3.5600     1.1920 c5         1 7XR      -0.083900
     26 CAM          6.1460    -3.1120    -0.1530 c5         1 7XR      -0.083900
     27 CAO          4.9110    -2.5290    -0.9020 c5         1 7XR      -0.101400
     28 NAX          5.5170     0.5700    -0.0110 nu         1 7XR      -0.909200
     29 CAY          6.4440     1.5960    -0.1660 ca         1 7XR       0.318000
     30 CAE          7.6570     1.3180    -0.8190 ca         1 7XR      -0.156500
     31 CAC          8.6260     2.3240    -0.9800 ca         1 7XR      -0.080000
     32 CAB          8.3870     3.6140    -0.4780 ca         1 7XR      -0.141000
     33 CAD          7.1830     3.8960     0.1880 ca         1 7XR      -0.080000
     34 CAF          6.2160     2.8860     0.3460 ca         1 7XR      -0.156500
     35 H1           0.8000     2.8070    -0.4350 h4         1 7XR       0.037100
     36 H2          -1.1160    -2.0760    -0.1960 hn         1 7XR       0.505000
     37 H4          -7.3380    -0.7730    -1.9860 h1         1 7XR       0.042700
     38 H5          -8.9500     1.0270    -1.6580 h1         1 7XR       0.039200
     39 H6          -9.8210    -0.5000    -1.8360 h1         1 7XR       0.039200
     40 H8         -11.8170     0.4500    -0.6750 h1         1 7XR       0.031033
     41 H9         -11.6430     1.1420     0.9520 h1         1 7XR       0.031033
     42 H10        -10.9970     2.0150    -0.4580 h1         1 7XR       0.031033
     43 H11         -8.6980     2.0270     0.6940 h1         1 7XR       0.039200
     44 H12         -9.4050     1.1560     2.0590 h1         1 7XR       0.039200
     45 H13         -6.9280     0.8750     1.9230 h1         1 7XR       0.042700
     46 H14         -7.7820    -0.6700     1.8420 h1         1 7XR       0.042700
     47 H15         -4.9850     1.5440     0.9210 ha         1 7XR       0.114000
     48 H16         -2.5590     1.1250     0.9230 ha         1 7XR       0.126000
     49 H17         -5.6430    -2.2810    -0.9770 ha         1 7XR       0.114000
     50 H18         -3.2110    -2.6820    -1.0070 ha         1 7XR       0.126000
     51 H19          3.0790    -2.7070     0.2280 h1         1 7XR       0.094700
     52 H20          5.3910    -1.4610     1.8210 hc         1 7XR       0.060200
     53 H21          4.0530    -2.4470     2.3990 hc         1 7XR       0.060200
     54 H22          6.2920    -3.8000     1.9420 hc         1 7XR       0.048700
     55 H23          4.8840    -4.4390     1.0780 hc         1 7XR       0.048700
     56 H24          6.9240    -2.3540    -0.0040 hc         1 7XR       0.048700
     57 H25          6.6080    -3.9430    -0.6990 hc         1 7XR       0.048700
     58 H26          4.4170    -3.3030    -1.5010 hc         1 7XR       0.060200
     59 H27          5.1990    -1.7420    -1.6080 hc         1 7XR       0.060200
     60 H28          5.9000    -0.3620    -0.0960 hn         1 7XR       0.505000
     61 H29          7.8490     0.3230    -1.2110 ha         1 7XR       0.130000
     62 H30          9.5610     2.1040    -1.4920 ha         1 7XR       0.112500
     63 H31          9.1370     4.3930    -0.6000 ha         1 7XR       0.115000
     64 H32          7.0000     4.8920     0.5850 ha         1 7XR       0.112500
     65 H33          5.2960     3.1100     0.8760 ha         1 7XR       0.130000
     66 N2          -1.3260    -1.0830    -0.0930 nu         1 7XR      -0.927900
     67 H3          -8.0510    -1.7430    -0.6840 h1         1 7XR       0.042700
@<TRIPOS>BOND
     1     1     2 ar  
     2     1     6 ar  
     3     1    22 1   
     4     2     3 ar  
     5     2    21 1   
     6     3     5 ar  
     7     3    35 1   
     8     4    21 2   
     9     4    22 1   
    10     4    28 1   
    11     5    20 ar  
    12     6    20 ar  
    13     7     8 1   
    14     7    13 1   
    15     7    37 1   
    16     7    67 1   
    17     8     9 1   
    18     8    38 1   
    19     8    39 1   
    20     9    10 1   
    21     9    11 1   
    22    10    40 1   
    23    10    41 1   
    24    10    42 1   
    25    11    12 1   
    26    11    43 1   
    27    11    44 1   
    28    12    13 1   
    29    12    45 1   
    30    12    46 1   
    31    13    14 1   
    32    14    15 ar  
    33    14    17 ar  
    34    15    16 ar  
    35    15    47 1   
    36    16    19 ar  
    37    16    48 1   
    38    17    18 ar  
    39    17    49 1   
    40    18    19 ar  
    41    18    50 1   
    42    19    66 1   
    43    20    66 1   
    44    22    23 1   
    45    23    24 1   
    46    23    27 1   
    47    23    51 1   
    48    24    25 1   
    49    24    52 1   
    50    24    53 1   
    51    25    26 1   
    52    25    54 1   
    53    25    55 1   
    54    26    27 1   
    55    26    56 1   
    56    26    57 1   
    57    27    58 1   
    58    27    59 1   
    59    28    29 1   
    60    28    60 1   
    61    29    30 ar  
    62    29    34 ar  
    63    30    31 ar  
    64    30    61 1   
    65    31    32 ar  
    66    31    62 1   
    67    32    33 ar  
    68    32    63 1   
    69    33    34 ar  
    70    33    64 1   
    71    34    65 1   
    72    36    66 1   
@<TRIPOS>SUBSTRUCTURE
     1 7XR         1 TEMP              0 ****  ****    0 ROOT
