@<TRIPOS>MOLECULE
7XS
   52    55     1     0     0
SMALL
abcg2


@<TRIPOS>ATOM
      1 N3           0.8160     1.0320     1.1990 nn         1 7XS      -0.780300
      2 C4           1.9570    -1.8100    -0.8740 c3         1 7XS      -0.085700
      3 N2           2.5120     2.5030     1.2590 nb         1 7XS      -0.316000
      4 C7           4.0990     1.1860    -0.3960 ca         1 7XS       0.151500
      5 C6           2.8650     0.5820    -0.0950 ca         1 7XS      -0.366900
      6 C9           2.0430     1.3450     0.7780 ca         1 7XS       0.468900
      7 C13         -3.2970     0.7530     0.5520 ca         1 7XS       0.095100
      8 C8           3.7130     2.9300     0.8870 ca         1 7XS       0.195900
      9 N5           4.0280    -0.7420    -1.4790 nc         1 7XS      -0.537100
     10 C18         -4.3500     1.4030    -0.0820 ca         1 7XS      -0.128500
     11 C16         -5.4790    -0.6950    -0.4480 ca         1 7XS       0.110100
     12 C19         -7.5860    -0.8490    -1.5260 c3         1 7XS       0.148900
     13 C1           2.4090    -2.4820     1.5490 c3         1 7XS      -0.088100
     14 C2           2.3160    -2.9450     0.1000 c3         1 7XS      -0.059700
     15 C3           1.3090    -4.0810    -0.0410 c3         1 7XS      -0.088100
     16 C5           2.9000    -0.6530    -0.8160 cd         1 7XS       0.399900
     17 N1           4.5600     2.3530     0.0630 nb         1 7XS      -0.237000
     18 C10         -0.0750     1.8930     1.9620 cy         1 7XS       0.213800
     19 C11         -1.2150     0.9120     1.6570 cy         1 7XS       0.126300
     20 C12         -0.2320     0.1240     0.7650 cy         1 7XS       0.213800
     21 O1          -2.2830     1.5360     1.0050 os         1 7XS      -0.330100
     22 C14         -3.3420    -0.6320     0.6830 ca         1 7XS      -0.128500
     23 C15         -4.4230    -1.3440     0.1870 ca         1 7XS      -0.135500
     24 C17         -5.4320     0.6920    -0.5780 ca         1 7XS      -0.135500
     25 O2          -6.4860    -1.4740    -0.8980 os         1 7XS      -0.341100
     26 N4           4.7470     0.3610    -1.2300 na         1 7XS      -0.017100
     27 H8           1.9770    -2.2130    -1.8890 hc         1 7XS       0.052200
     28 H9           0.9330    -1.4840    -0.7030 hc         1 7XS       0.052200
     29 H25          6.7200    -0.2540    -1.5230 h1         1 7XS       0.058700
     30 H24          5.9650     0.5510    -2.9130 h1         1 7XS       0.058700
     31 H23          6.4490     1.4950    -1.4960 h1         1 7XS       0.058700
     32 H10          4.0250     3.8770     1.3160 h5         1 7XS       0.045100
     33 H19         -4.3250     2.4800    -0.1910 ha         1 7XS       0.122000
     34 H21         -8.0950    -0.1480    -0.8580 h1         1 7XS       0.040367
     35 H20         -7.2930    -0.3150    -2.4340 h1         1 7XS       0.040367
     36 H22         -8.2800    -1.6400    -1.7970 h1         1 7XS       0.040367
     37 H2           1.4520    -2.0980     1.9080 hc         1 7XS       0.033367
     38 H1           2.6890    -3.3130     2.1990 hc         1 7XS       0.033367
     39 H3           3.1540    -1.6970     1.6860 hc         1 7XS       0.033367
     40 H4           3.3020    -3.3200    -0.1970 hc         1 7XS       0.058700
     41 H7           1.2390    -4.4310    -1.0720 hc         1 7XS       0.033367
     42 H6           1.5890    -4.9330     0.5810 hc         1 7XS       0.033367
     43 H5           0.3120    -3.7590     0.2700 hc         1 7XS       0.033367
     44 H12          0.1920     2.0000     3.0140 h1         1 7XS       0.074450
     45 H11         -0.2130     2.8840     1.5230 h1         1 7XS       0.074450
     46 H13         -1.5560     0.3470     2.5290 h1         1 7XS       0.068700
     47 H15         -0.4540     0.1750    -0.3040 h1         1 7XS       0.074450
     48 H14         -0.0810    -0.9140     1.0610 h1         1 7XS       0.074450
     49 H16         -2.5510    -1.1870     1.1700 ha         1 7XS       0.122000
     50 H17         -4.4450    -2.4210     0.2950 ha         1 7XS       0.124500
     51 H18         -6.2270     1.2400    -1.0630 ha         1 7XS       0.124500
     52 C20          6.0440     0.5440    -1.8270 c3         1 7XS       0.082900
@<TRIPOS>BOND
     1     1     6 1   
     2     1    18 1   
     3     1    20 1   
     4     2    14 1   
     5     2    16 1   
     6     2    27 1   
     7     2    28 1   
     8     3     6 ar  
     9     3     8 ar  
    10     4     5 ar  
    11     4    17 ar  
    12     4    26 1   
    13     5     6 ar  
    14     5    16 1   
    15     7    10 ar  
    16     7    21 1   
    17     7    22 ar  
    18     8    17 ar  
    19     8    32 1   
    20     9    16 2   
    21     9    26 1   
    22    10    24 ar  
    23    10    33 1   
    24    11    23 ar  
    25    11    24 ar  
    26    11    25 1   
    27    12    25 1   
    28    12    34 1   
    29    12    35 1   
    30    12    36 1   
    31    13    14 1   
    32    13    37 1   
    33    13    38 1   
    34    13    39 1   
    35    14    15 1   
    36    14    40 1   
    37    15    41 1   
    38    15    42 1   
    39    15    43 1   
    40    18    19 1   
    41    18    44 1   
    42    18    45 1   
    43    19    20 1   
    44    19    21 1   
    45    19    46 1   
    46    20    47 1   
    47    20    48 1   
    48    22    23 ar  
    49    22    49 1   
    50    23    50 1   
    51    24    51 1   
    52    26    52 1   
    53    29    52 1   
    54    30    52 1   
    55    31    52 1   
@<TRIPOS>SUBSTRUCTURE
     1 7XS         1 TEMP              0 ****  ****    0 ROOT
