@<TRIPOS>MOLECULE
7XS
   52    55     1     0     0
SMALL
No Charge or Current Charge


@<TRIPOS>ATOM
      1 N3           0.8710     0.7490     0.7430 nn         1 7XS      -0.780300
      2 C4           2.2260    -1.9910    -0.4470 c3         1 7XS      -0.085700
      3 N2           2.2930     2.5900     0.6470 nb         1 7XS      -0.316000
      4 C7           4.2080     1.1660    -0.7000 ca         1 7XS       0.151500
      5 C6           3.0500     0.5590    -0.3110 ca         1 7XS      -0.366900
      6 C9           2.0720     1.2890     0.3680 ca         1 7XS       0.468900
      7 C13         -3.5060     0.3490     0.6940 ca         1 7XS       0.095100
      8 C8           3.4700     3.1120     0.2320 ca         1 7XS       0.195900
      9 N5           4.3200    -1.0490    -1.3410 nc         1 7XS      -0.537100
     10 C18         -4.6890     1.1060     0.7160 ca         1 7XS      -0.128500
     11 C16         -5.7670    -0.4970    -0.7760 ca         1 7XS       0.110100
     12 C19         -8.0950    -0.2530    -1.5620 c3         1 7XS       0.148900
     13 C1           2.5600    -2.0120     2.1100 c3         1 7XS      -0.088100
     14 C2           2.6110    -2.8330     0.8000 c3         1 7XS      -0.059700
     15 C3           1.7330    -4.1000     0.9100 c3         1 7XS      -0.088100
     16 C5           3.1560    -0.8280    -0.7120 cd         1 7XS       0.399900
     17 N1           4.4500     2.4640    -0.4390 nb         1 7XS      -0.237000
     18 C10          0.0500     1.0900     1.9480 cy         1 7XS       0.213800
     19 C11         -1.0990     0.2920     1.2540 cy         1 7XS       0.126300
     20 C12         -0.3710     0.6520    -0.0830 cy         1 7XS       0.213800
     21 O1          -2.4330     0.8050     1.4300 os         1 7XS      -0.330100
     22 C14         -3.4570    -0.8430    -0.0620 ca         1 7XS      -0.128500
     23 C15         -4.5850    -1.2570    -0.7930 ca         1 7XS      -0.135500
     24 C17         -5.8180     0.6920    -0.0150 ca         1 7XS      -0.135500
     25 O2          -6.8400    -0.9560    -1.5130 os         1 7XS      -0.341100
     26 N4           4.9570     0.1910    -1.3350 na         1 7XS      -0.017100
     27 H8           2.2260    -2.6460    -1.3260 hc         1 7XS       0.052200
     28 H9           1.1950    -1.6490    -0.3420 hc         1 7XS       0.052200
     29 H25          6.9820     0.7420    -1.1320 h1         1 7XS       0.058700
     30 H24          6.6610    -0.4920    -2.3860 h1         1 7XS       0.058700
     31 H23          6.2180     1.2160    -2.6790 h1         1 7XS       0.058700
     32 H10          3.6460     4.1630     0.4570 h5         1 7XS       0.045100
     33 H19         -4.7300     2.0220     1.3010 ha         1 7XS       0.122000
     34 H21         -8.5360    -0.1710    -0.5610 h1         1 7XS       0.040367
     35 H20         -7.9610     0.7560    -1.9730 h1         1 7XS       0.040367
     36 H22         -8.8060    -0.7890    -2.2030 h1         1 7XS       0.040367
     37 H2           1.5440    -1.6490     2.3030 hc         1 7XS       0.033367
     38 H1           2.8700    -2.6280     2.9630 hc         1 7XS       0.033367
     39 H3           3.2320    -1.1480     2.0620 hc         1 7XS       0.033367
     40 H4           3.6470    -3.1680     0.6650 hc         1 7XS       0.058700
     41 H7           1.8200    -4.7130     0.0040 hc         1 7XS       0.033367
     42 H6           2.0440    -4.7150     1.7630 hc         1 7XS       0.033367
     43 H5           0.6780    -3.8340     1.0450 hc         1 7XS       0.033367
     44 H12          0.3790     0.6530     2.8980 h1         1 7XS       0.074450
     45 H11         -0.1700     2.1570     2.0750 h1         1 7XS       0.074450
     46 H13         -1.0630    -0.7760     1.4930 h1         1 7XS       0.068700
     47 H15         -0.7060     1.5990    -0.5230 h1         1 7XS       0.074450
     48 H14         -0.4050    -0.1440    -0.8350 h1         1 7XS       0.074450
     49 H16         -2.5620    -1.4580    -0.0900 ha         1 7XS       0.122000
     50 H17         -4.5460    -2.1750    -1.3750 ha         1 7XS       0.124500
     51 H18         -6.7160     1.3020     0.0220 ha         1 7XS       0.124500
     52 C20          6.2870     0.4280    -1.9190 c3         1 7XS       0.082900
@<TRIPOS>BOND
     1     1     6 1   
     2     1    18 1   
     3     1    20 1   
     4     2    14 1   
     5     2    16 1   
     6     2    27 1   
     7     2    28 1   
     8     3     6 ar  
     9     3     8 ar  
    10     4     5 ar  
    11     4    17 ar  
    12     4    26 1   
    13     5     6 ar  
    14     5    16 1   
    15     7    10 ar  
    16     7    21 1   
    17     7    22 ar  
    18     8    17 ar  
    19     8    32 1   
    20     9    16 2   
    21     9    26 1   
    22    10    24 ar  
    23    10    33 1   
    24    11    23 ar  
    25    11    24 ar  
    26    11    25 1   
    27    12    25 1   
    28    12    34 1   
    29    12    35 1   
    30    12    36 1   
    31    13    14 1   
    32    13    37 1   
    33    13    38 1   
    34    13    39 1   
    35    14    15 1   
    36    14    40 1   
    37    15    41 1   
    38    15    42 1   
    39    15    43 1   
    40    18    19 1   
    41    18    44 1   
    42    18    45 1   
    43    19    20 1   
    44    19    21 1   
    45    19    46 1   
    46    20    47 1   
    47    20    48 1   
    48    22    23 ar  
    49    22    49 1   
    50    23    50 1   
    51    24    51 1   
    52    26    52 1   
    53    29    52 1   
    54    30    52 1   
    55    31    52 1   
@<TRIPOS>SUBSTRUCTURE
     1 7XS         1 TEMP              0 ****  ****    0 ROOT
