@<TRIPOS>MOLECULE
7XU
   70    75     1     0     0
SMALL
bcc


@<TRIPOS>ATOM
      1 C4           1.9950     0.0480     0.1420 ca         1 7XU       0.481800
      2 C5           1.9850     1.4410     0.2950 ca         1 7XU      -0.174200
      3 C6           0.7350     2.0120     0.3790 ca         1 7XU       0.522200
      4 C8           4.0220     0.8680     0.2140 cc         1 7XU       0.667700
      5 N1          -0.3610     1.2540     0.3160 nb         1 7XU      -0.769000
      6 N3           0.9410    -0.7270     0.0730 nb         1 7XU      -0.786000
      7 CAS         -7.7480    -1.1260     0.1380 c6         1 7XU       0.157300
      8 CAQ         -9.1790    -0.7910     0.5470 c6         1 7XU       0.159300
      9 NBH         -9.7310     0.3710    -0.1220 n3         1 7XU      -0.712600
     10 CAA        -10.0890     0.1320    -1.5060 c3         1 7XU       0.151100
     11 CAR         -8.8330     1.4940     0.0630 c6         1 7XU       0.159300
     12 CAT         -7.3960     1.2120    -0.3540 c6         1 7XU       0.157300
     13 NBI         -6.8870     0.0260     0.3290 nh         1 7XU      -0.636000
     14 CBB         -5.5050    -0.1880     0.2480 ca         1 7XU       0.118600
     15 CAJ         -4.6070     0.8470     0.5320 ca         1 7XU      -0.147500
     16 CAH         -3.2340     0.6760     0.4830 ca         1 7XU      -0.144000
     17 CAI         -4.9440    -1.4250    -0.0840 ca         1 7XU      -0.147500
     18 CAG         -3.5710    -1.6060    -0.1220 ca         1 7XU      -0.144000
     19 CBA         -2.6840    -0.5650     0.1520 ca         1 7XU       0.152600
     20 C2          -0.2210    -0.0600     0.1670 ca         1 7XU       0.920900
     21 N7           3.2710     1.9250     0.3390 nd         1 7XU      -0.603100
     22 N9           3.3090    -0.3150     0.0820 na         1 7XU      -0.297000
     23 CBG          3.7650    -1.6850    -0.1460 c6         1 7XU       0.057000
     24 CAO          4.4790    -2.2830     1.0630 c6         1 7XU      -0.088400
     25 CAM          4.8190    -3.7470     0.8000 c6         1 7XU      -0.074900
     26 CAL          5.6300    -3.9130    -0.4800 c6         1 7XU      -0.079400
     27 CAN          4.9070    -3.3040    -1.6760 c6         1 7XU      -0.074900
     28 CAP          4.5650    -1.8360    -1.4390 c6         1 7XU      -0.088400
     29 NAY          5.3780     0.8480     0.2090 nu         1 7XU      -0.714600
     30 CAZ          6.2660     1.9230     0.1860 ca         1 7XU       0.180600
     31 CAE          7.6220     1.6200     0.3440 ca         1 7XU      -0.173500
     32 CAC          8.5760     2.6200     0.3010 ca         1 7XU      -0.098000
     33 CAB          8.2020     3.9440     0.1020 ca         1 7XU      -0.159000
     34 CAD          6.8570     4.2430    -0.0540 ca         1 7XU      -0.098000
     35 CAF          5.8860     3.2510    -0.0140 ca         1 7XU      -0.173500
     36 H1           0.5910     3.0800     0.4980 h4         1 7XU       0.037100
     37 H2          -1.1020    -1.8290    -0.0640 hn         1 7XU       0.449800
     38 H4          -7.7250    -1.4860    -0.9030 h1         1 7XU       0.039950
     39 H5          -9.8180    -1.6570     0.3580 h1         1 7XU       0.059200
     40 H6          -9.1980    -0.6070     1.6260 h1         1 7XU       0.059200
     41 H8         -10.8470    -0.6520    -1.5570 h1         1 7XU       0.030033
     42 H9         -10.5270     1.0370    -1.9290 h1         1 7XU       0.030033
     43 H10         -9.2640    -0.1700    -2.1660 h1         1 7XU       0.030033
     44 H11         -9.2070     2.3560    -0.4940 h1         1 7XU       0.059200
     45 H12         -8.8390     1.7690     1.1230 h1         1 7XU       0.059200
     46 H13         -7.3250     1.0930    -1.4450 h1         1 7XU       0.039950
     47 H14         -6.7940     2.0810    -0.0940 h1         1 7XU       0.039950
     48 H15         -4.9780     1.8220     0.8210 ha         1 7XU       0.131500
     49 H16         -2.5930     1.5120     0.7100 ha         1 7XU       0.145500
     50 H17         -5.5680    -2.2740    -0.3290 ha         1 7XU       0.131500
     51 H18         -3.1850    -2.5840    -0.3890 ha         1 7XU       0.145500
     52 H19          2.8360    -2.2470    -0.2750 h1         1 7XU       0.092700
     53 H20          5.4060    -1.7450     1.2920 hc         1 7XU       0.050200
     54 H21          3.8420    -2.1910     1.9450 hc         1 7XU       0.050200
     55 H22          5.3640    -4.1530     1.6530 hc         1 7XU       0.046950
     56 H23          3.8910    -4.3240     0.7230 hc         1 7XU       0.046950
     57 H24          6.6040    -3.4260    -0.3560 hc         1 7XU       0.042700
     58 H25          5.8330    -4.9700    -0.6620 hc         1 7XU       0.042700
     59 H26          5.5180    -3.3920    -2.5770 hc         1 7XU       0.046950
     60 H27          3.9850    -3.8620    -1.8690 hc         1 7XU       0.046950
     61 H28          3.9830    -1.4380    -2.2730 hc         1 7XU       0.050200
     62 H29          5.4910    -1.2540    -1.4050 hc         1 7XU       0.050200
     63 H30          5.8140    -0.0510     0.3300 hn         1 7XU       0.446800
     64 H31          7.9300     0.5930     0.5010 ha         1 7XU       0.147500
     65 H32          9.6200     2.3610     0.4260 ha         1 7XU       0.130500
     66 H33          8.9480     4.7270     0.0700 ha         1 7XU       0.133000
     67 H34          6.5470     5.2680    -0.2110 ha         1 7XU       0.130500
     68 H35          4.8460     3.5090    -0.1340 ha         1 7XU       0.147500
     69 N2          -1.3240    -0.8590     0.0930 nu         1 7XU      -0.734300
     70 H3          -7.4000    -1.9490     0.7650 h1         1 7XU       0.039950
@<TRIPOS>BOND
     1     1     2 ar  
     2     1     6 ar  
     3     1    22 1   
     4     2     3 ar  
     5     2    21 1   
     6     3     5 ar  
     7     3    36 1   
     8     4    21 2   
     9     4    22 1   
    10     4    29 1   
    11     5    20 ar  
    12     6    20 ar  
    13     7     8 1   
    14     7    13 1   
    15     7    38 1   
    16     7    70 1   
    17     8     9 1   
    18     8    39 1   
    19     8    40 1   
    20     9    10 1   
    21     9    11 1   
    22    10    41 1   
    23    10    42 1   
    24    10    43 1   
    25    11    12 1   
    26    11    44 1   
    27    11    45 1   
    28    12    13 1   
    29    12    46 1   
    30    12    47 1   
    31    13    14 1   
    32    14    15 ar  
    33    14    17 ar  
    34    15    16 ar  
    35    15    48 1   
    36    16    19 ar  
    37    16    49 1   
    38    17    18 ar  
    39    17    50 1   
    40    18    19 ar  
    41    18    51 1   
    42    19    69 1   
    43    20    69 1   
    44    22    23 1   
    45    23    24 1   
    46    23    28 1   
    47    23    52 1   
    48    24    25 1   
    49    24    53 1   
    50    24    54 1   
    51    25    26 1   
    52    25    55 1   
    53    25    56 1   
    54    26    27 1   
    55    26    57 1   
    56    26    58 1   
    57    27    28 1   
    58    27    59 1   
    59    27    60 1   
    60    28    61 1   
    61    28    62 1   
    62    29    30 1   
    63    29    63 1   
    64    30    31 ar  
    65    30    35 ar  
    66    31    32 ar  
    67    31    64 1   
    68    32    33 ar  
    69    32    65 1   
    70    33    34 ar  
    71    33    66 1   
    72    34    35 ar  
    73    34    67 1   
    74    35    68 1   
    75    37    69 1   
@<TRIPOS>SUBSTRUCTURE
     1 7XU         1 TEMP              0 ****  ****    0 ROOT
