@<TRIPOS>MOLECULE
7XU
   70    75     1     0     0
SMALL
No Charge or Current Charge


@<TRIPOS>ATOM
      1 C4           2.0400    -0.0460    -0.1320 ca         1 7XU       0.153500
      2 C5           2.0090     1.3270    -0.0530 ca         1 7XU      -0.043600
      3 C6           0.7580     1.9700    -0.0300 ca         1 7XU       0.193900
      4 C8           4.0830     0.8280    -0.0710 cc         1 7XU       0.667700
      5 N1          -0.3800     1.2440    -0.0830 nb         1 7XU      -0.243000
      6 N3           0.9180    -0.7890    -0.1850 nb         1 7XU      -0.260000
      7 CAS         -7.9370    -1.1640     0.0120 c6         1 7XU       0.157300
      8 CAQ         -9.3290    -0.8630     0.6650 c6         1 7XU       0.159300
      9 NBH         -9.9220     0.4360     0.2170 n3         1 7XU      -0.712600
     10 CAA        -10.3950     0.4130    -1.1880 c3         1 7XU       0.151100
     11 CAR         -8.9500     1.5390     0.4980 c6         1 7XU       0.159300
     12 CAT         -7.5470     1.3090    -0.1590 c6         1 7XU       0.157300
     13 NBI         -6.9630    -0.0340     0.1710 nh         1 7XU      -0.774400
     14 CBB         -5.5660    -0.2470     0.0660 ca         1 7XU       0.257000
     15 CAJ         -4.6700     0.6150     0.7260 ca         1 7XU      -0.129500
     16 CAH         -3.2790     0.4190     0.6350 ca         1 7XU      -0.126000
     17 CAI         -5.0390    -1.3210    -0.6810 ca         1 7XU      -0.129500
     18 CAG         -3.6480    -1.5170    -0.7730 ca         1 7XU      -0.126000
     19 CBA         -2.7560    -0.6430    -0.1280 ca         1 7XU       0.291000
     20 C2          -0.2400    -0.1000    -0.1470 ca         1 7XU       0.394900
     21 N7           3.2830     1.8950    -0.0080 nd         1 7XU      -0.603100
     22 N9           3.3690    -0.3660    -0.1370 na         1 7XU      -0.326300
     23 CBG          3.8470    -1.7730    -0.1990 c6         1 7XU       0.086300
     24 CAO          4.5890    -2.1870     1.1020 c6         1 7XU      -0.088400
     25 CAM          5.0460    -3.6660     1.0330 c6         1 7XU      -0.074900
     26 CAL          5.9150    -3.9270    -0.2230 c6         1 7XU      -0.079400
     27 CAN          5.1690    -3.5190    -1.5180 c6         1 7XU      -0.074900
     28 CAP          4.7150    -2.0390    -1.4600 c6         1 7XU      -0.088400
     29 NAY          5.4390     0.9000    -0.0230 nu         1 7XU      -0.908200
     30 CAZ          6.3340     1.9580     0.1060 ca         1 7XU       0.319000
     31 CAE          7.5180     1.7600     0.8370 ca         1 7XU      -0.155500
     32 CAC          8.4540     2.8010     0.9730 ca         1 7XU      -0.080000
     33 CAB          8.2110     4.0450     0.3680 ca         1 7XU      -0.141000
     34 CAD          7.0370     4.2460    -0.3760 ca         1 7XU      -0.080000
     35 CAF          6.1040     3.2020    -0.5090 ca         1 7XU      -0.155500
     36 H1           0.6630     3.0540     0.0280 h4         1 7XU       0.037100
     37 H2          -1.1570    -1.8430    -0.5120 hn         1 7XU       0.505000
     38 H4          -8.0830    -1.3810    -1.0560 h1         1 7XU       0.039950
     39 H5         -10.0130    -1.6960     0.4490 h1         1 7XU       0.059200
     40 H6          -9.1930    -0.8480     1.7570 h1         1 7XU       0.059200
     41 H8         -11.1410    -0.3800    -1.3300 h1         1 7XU       0.030033
     42 H9         -10.8660     1.3690    -1.4510 h1         1 7XU       0.030033
     43 H10         -9.5690     0.2340    -1.8890 h1         1 7XU       0.030033
     44 H11         -9.3510     2.5050     0.1560 h1         1 7XU       0.059200
     45 H12         -8.8030     1.6310     1.5850 h1         1 7XU       0.059200
     46 H13         -7.6430     1.4080    -1.2500 h1         1 7XU       0.039950
     47 H14         -6.8800     2.1160     0.1750 h1         1 7XU       0.039950
     48 H15         -5.0510     1.4330     1.3310 ha         1 7XU       0.113500
     49 H16         -2.6190     1.0850     1.1790 ha         1 7XU       0.127500
     50 H17         -5.7010    -2.0030    -1.2050 ha         1 7XU       0.113500
     51 H18         -3.2650    -2.3480    -1.3580 ha         1 7XU       0.127500
     52 H19          2.9640    -2.4240    -0.2800 h1         1 7XU       0.092700
     53 H20          5.4650    -1.5490     1.2760 hc         1 7XU       0.050200
     54 H21          3.9270    -2.0470     1.9680 hc         1 7XU       0.050200
     55 H22          5.6110    -3.9250     1.9390 hc         1 7XU       0.046950
     56 H23          4.1660    -4.3240     1.0170 hc         1 7XU       0.046950
     57 H24          6.8570    -3.3660    -0.1450 hc         1 7XU       0.042700
     58 H25          6.1890    -4.9900    -0.2710 hc         1 7XU       0.042700
     59 H26          5.8200    -3.6750    -2.3890 hc         1 7XU       0.046950
     60 H27          4.2950    -4.1690    -1.6620 hc         1 7XU       0.046950
     61 H28          4.1400    -1.7950    -2.3640 hc         1 7XU       0.050200
     62 H29          5.6010    -1.3910    -1.4720 hc         1 7XU       0.050200
     63 H30          5.8400    -0.0130     0.1450 hn         1 7XU       0.502000
     64 H31          7.7130     0.8010     1.3080 ha         1 7XU       0.129500
     65 H32          9.3660     2.6420     1.5460 ha         1 7XU       0.112500
     66 H33          8.9350     4.8510     0.4710 ha         1 7XU       0.115000
     67 H34          6.8520     5.2060    -0.8530 ha         1 7XU       0.112500
     68 H35          5.2070     3.3620    -1.1000 ha         1 7XU       0.129500
     69 N2          -1.3810    -0.8870    -0.2370 nu         1 7XU      -0.927900
     70 H3          -7.5340    -2.0760     0.4760 h1         1 7XU       0.039950
@<TRIPOS>BOND
     1     1     2 ar  
     2     1     6 ar  
     3     1    22 1   
     4     2     3 ar  
     5     2    21 1   
     6     3     5 ar  
     7     3    36 1   
     8     4    21 2   
     9     4    22 1   
    10     4    29 1   
    11     5    20 ar  
    12     6    20 ar  
    13     7     8 1   
    14     7    13 1   
    15     7    38 1   
    16     7    70 1   
    17     8     9 1   
    18     8    39 1   
    19     8    40 1   
    20     9    10 1   
    21     9    11 1   
    22    10    41 1   
    23    10    42 1   
    24    10    43 1   
    25    11    12 1   
    26    11    44 1   
    27    11    45 1   
    28    12    13 1   
    29    12    46 1   
    30    12    47 1   
    31    13    14 1   
    32    14    15 ar  
    33    14    17 ar  
    34    15    16 ar  
    35    15    48 1   
    36    16    19 ar  
    37    16    49 1   
    38    17    18 ar  
    39    17    50 1   
    40    18    19 ar  
    41    18    51 1   
    42    19    69 1   
    43    20    69 1   
    44    22    23 1   
    45    23    24 1   
    46    23    28 1   
    47    23    52 1   
    48    24    25 1   
    49    24    53 1   
    50    24    54 1   
    51    25    26 1   
    52    25    55 1   
    53    25    56 1   
    54    26    27 1   
    55    26    57 1   
    56    26    58 1   
    57    27    28 1   
    58    27    59 1   
    59    27    60 1   
    60    28    61 1   
    61    28    62 1   
    62    29    30 1   
    63    29    63 1   
    64    30    31 ar  
    65    30    35 ar  
    66    31    32 ar  
    67    31    64 1   
    68    32    33 ar  
    69    32    65 1   
    70    33    34 ar  
    71    33    66 1   
    72    34    35 ar  
    73    34    67 1   
    74    35    68 1   
    75    37    69 1   
@<TRIPOS>SUBSTRUCTURE
     1 7XU         1 TEMP              0 ****  ****    0 ROOT
