@<TRIPOS>MOLECULE
7XV
   46    48     1     0     0
SMALL
No Charge or Current Charge


@<TRIPOS>ATOM
      1 N3           2.7640     0.7890    -0.2230 na         1 7XV       0.004200
      2 C4           2.6530    -1.7240    -0.9710 c3         1 7XV      -0.075700
      3 N2           4.9110     1.1060    -0.3060 nc         1 7XV      -0.074000
      4 C7           1.4570     1.0910     0.1520 cd         1 7XV       0.142100
      5 C6           3.7560     1.6620     0.0120 cd         1 7XV      -0.145000
      6 C9           3.4890     2.9600     0.5420 cd         1 7XV       0.353900
      7 C13         -3.7260    -1.2600     1.4060 ca         1 7XV      -0.068000
      8 C8           1.2290     2.3780     0.6630 cc         1 7XV       0.164900
      9 C18         -4.2960     1.5370    -2.5940 c3         1 7XV       0.147900
     10 C16         -5.4150     0.2740    -0.2330 ca         1 7XV      -0.196000
     11 C1           2.0570    -2.3080     1.4770 c3         1 7XV      -0.088100
     12 C2           2.7350    -2.7780     0.1690 c3         1 7XV      -0.058700
     13 C3           2.1660    -4.1400    -0.2890 c3         1 7XV      -0.088100
     14 C5           3.3090    -0.4010    -0.6330 cd         1 7XV       0.349800
     15 N1           4.6270    -0.2050    -0.7160 nc         1 7XV      -0.366700
     16 N4           2.2400     3.3280     0.8550 nc         1 7XV      -0.612000
     17 O1           0.4790     0.1490    -0.0520 os         1 7XV      -0.344100
     18 C10         -0.8910     0.4300     0.2800 c3         1 7XV       0.176600
     19 C11         -1.7200    -0.8160    -0.0850 c3         1 7XV      -0.021100
     20 C12         -3.2010    -0.6430     0.2510 ca         1 7XV      -0.127300
     21 C14         -5.0820    -1.1120     1.7360 ca         1 7XV      -0.145000
     22 C15         -5.9260    -0.3460     0.9190 ca         1 7XV      -0.065000
     23 C17         -4.0500     0.1300    -0.5740 ca         1 7XV       0.147100
     24 O2          -3.5120     0.7280    -1.6980 os         1 7XV      -0.348100
     25 H9           3.1570    -2.1370    -1.8530 hc         1 7XV       0.068200
     26 H8           1.6130    -1.5910    -1.2830 hc         1 7XV       0.068200
     27 H11          4.2580     3.6980     0.7320 h4         1 7XV       0.053100
     28 H16         -3.0810    -1.8550     2.0500 ha         1 7XV       0.115000
     29 H10          0.2470     2.7270     0.9510 h4         1 7XV       0.038100
     30 H21         -5.1150     0.9530    -3.0310 h1         1 7XV       0.043700
     31 H20         -4.7190     2.4020    -2.0680 h1         1 7XV       0.043700
     32 H22         -3.6700     1.9110    -3.4140 h1         1 7XV       0.043700
     33 H19         -6.0910     0.8620    -0.8470 ha         1 7XV       0.120000
     34 H1           2.1810    -3.0600     2.2660 hc         1 7XV       0.033867
     35 H3           2.4970    -1.3720     1.8400 hc         1 7XV       0.033867
     36 H2           0.9820    -2.1510     1.3280 hc         1 7XV       0.033867
     37 H4           3.7980    -2.9330     0.3940 hc         1 7XV       0.062700
     38 H6           1.0990    -4.0560    -0.5300 hc         1 7XV       0.033867
     39 H5           2.6920    -4.5020    -1.1800 hc         1 7XV       0.033867
     40 H7           2.2810    -4.8930     0.5000 hc         1 7XV       0.033867
     41 H12         -0.9970     0.6380     1.3520 h1         1 7XV       0.053700
     42 H13         -1.2600     1.2960    -0.2850 h1         1 7XV       0.053700
     43 H14         -1.5960    -1.0260    -1.1540 hc         1 7XV       0.066200
     44 H15         -1.3070    -1.6830     0.4440 hc         1 7XV       0.066200
     45 H17         -5.4790    -1.5910     2.6290 ha         1 7XV       0.120000
     46 H18         -6.9770    -0.2320     1.1780 ha         1 7XV       0.115000
@<TRIPOS>BOND
     1     1     4 1   
     2     1     5 1   
     3     1    14 1   
     4     2    12 1   
     5     2    14 1   
     6     2    25 1   
     7     2    26 1   
     8     3     5 2   
     9     3    15 1   
    10     4     8 2   
    11     4    17 1   
    12     5     6 1   
    13     6    16 2   
    14     6    27 1   
    15     7    20 ar  
    16     7    21 ar  
    17     7    28 1   
    18     8    16 1   
    19     8    29 1   
    20     9    24 1   
    21     9    30 1   
    22     9    31 1   
    23     9    32 1   
    24    10    22 ar  
    25    10    23 ar  
    26    10    33 1   
    27    11    12 1   
    28    11    34 1   
    29    11    35 1   
    30    11    36 1   
    31    12    13 1   
    32    12    37 1   
    33    13    38 1   
    34    13    39 1   
    35    13    40 1   
    36    14    15 2   
    37    17    18 1   
    38    18    19 1   
    39    18    41 1   
    40    18    42 1   
    41    19    20 1   
    42    19    43 1   
    43    19    44 1   
    44    20    23 ar  
    45    21    22 ar  
    46    21    45 1   
    47    22    46 1   
    48    23    24 1   
@<TRIPOS>SUBSTRUCTURE
     1 7XV         1 TEMP              0 ****  ****    0 ROOT
