@<TRIPOS>MOLECULE
7XV
   46    48     1     0     0
SMALL
bcc


@<TRIPOS>ATOM
      1 N3           2.6530     0.7200    -0.1260 na         1 7XV      -0.097200
      2 C4           2.6370    -1.7340    -0.9360 c3         1 7XV      -0.075700
      3 N2           4.8230     1.0430    -0.2460 nc         1 7XV      -0.074000
      4 C7           1.3560     1.1000     0.1370 cd         1 7XV       0.127500
      5 C6           3.6880     1.6080     0.0800 cd         1 7XV      -0.159600
      6 C9           3.3850     2.8980     0.5820 cd         1 7XV       0.419200
      7 C13         -3.6620    -1.2060     1.3520 ca         1 7XV      -0.086000
      8 C8           1.1560     2.3580     0.6230 cc         1 7XV       0.230200
      9 C18         -4.3140     1.4920    -2.5340 c3         1 7XV       0.124700
     10 C16         -5.3590     0.3210    -0.2110 ca         1 7XV      -0.214000
     11 C1           2.0590    -2.3360     1.4750 c3         1 7XV      -0.088100
     12 C2           2.7590    -2.7710     0.1930 c3         1 7XV      -0.058700
     13 C3           2.2270    -4.1140    -0.2920 c3         1 7XV      -0.088100
     14 C5           3.2520    -0.4210    -0.5950 cd         1 7XV       0.349800
     15 N1           4.5410    -0.1990    -0.6590 nc         1 7XV      -0.366700
     16 N4           2.1680     3.2430     0.8420 nc         1 7XV      -0.612000
     17 O1           0.4550     0.1780    -0.1290 os         1 7XV      -0.320900
     18 C10         -0.9110     0.4400     0.2050 c3         1 7XV       0.153400
     19 C11         -1.7160    -0.7890    -0.1780 c3         1 7XV      -0.021100
     20 C12         -3.1620    -0.6180     0.1980 ca         1 7XV      -0.127300
     21 C14         -4.9880    -1.0470     1.7380 ca         1 7XV      -0.163000
     22 C15         -5.8300    -0.2820     0.9500 ca         1 7XV      -0.083000
     23 C17         -4.0290     0.1570    -0.5880 ca         1 7XV       0.147100
     24 O2          -3.4910     0.7080    -1.6940 os         1 7XV      -0.324900
     25 H9           3.1710    -2.1110    -1.8110 hc         1 7XV       0.068200
     26 H8           1.5960    -1.6220    -1.2320 hc         1 7XV       0.068200
     27 H11          4.1910     3.6020     0.7530 h4         1 7XV       0.053100
     28 H16         -2.9960    -1.8070     1.9590 ha         1 7XV       0.133000
     29 H10          0.1590     2.7060     0.8520 h4         1 7XV       0.038100
     30 H21         -5.1500     0.9140    -2.9370 h1         1 7XV       0.043700
     31 H20         -4.7080     2.3690    -2.0150 h1         1 7XV       0.043700
     32 H22         -3.6870     1.8240    -3.3580 h1         1 7XV       0.043700
     33 H19         -6.0400     0.9150    -0.8050 ha         1 7XV       0.138000
     34 H1           2.1950    -3.0850     2.2560 hc         1 7XV       0.033867
     35 H3           2.4490    -1.3920     1.8610 hc         1 7XV       0.033867
     36 H2           0.9850    -2.2150     1.3220 hc         1 7XV       0.033867
     37 H4           3.8250    -2.8860     0.4120 hc         1 7XV       0.062700
     38 H6           1.1660    -4.0500    -0.5460 hc         1 7XV       0.033867
     39 H5           2.7610    -4.4560    -1.1800 hc         1 7XV       0.033867
     40 H7           2.3380    -4.8790     0.4770 hc         1 7XV       0.033867
     41 H12         -0.9920     0.6340     1.2790 h1         1 7XV       0.053700
     42 H13         -1.2590     1.3240    -0.3350 h1         1 7XV       0.053700
     43 H14         -1.6050    -0.9800    -1.2480 hc         1 7XV       0.066200
     44 H15         -1.3110    -1.6570     0.3460 hc         1 7XV       0.066200
     45 H17         -5.3530    -1.5180     2.6410 ha         1 7XV       0.138000
     46 H18         -6.8670    -0.1460     1.2300 ha         1 7XV       0.133000
@<TRIPOS>BOND
     1     1     4 1   
     2     1     5 1   
     3     1    14 1   
     4     2    12 1   
     5     2    14 1   
     6     2    25 1   
     7     2    26 1   
     8     3     5 2   
     9     3    15 1   
    10     4     8 2   
    11     4    17 1   
    12     5     6 1   
    13     6    16 2   
    14     6    27 1   
    15     7    20 ar  
    16     7    21 ar  
    17     7    28 1   
    18     8    16 1   
    19     8    29 1   
    20     9    24 1   
    21     9    30 1   
    22     9    31 1   
    23     9    32 1   
    24    10    22 ar  
    25    10    23 ar  
    26    10    33 1   
    27    11    12 1   
    28    11    34 1   
    29    11    35 1   
    30    11    36 1   
    31    12    13 1   
    32    12    37 1   
    33    13    38 1   
    34    13    39 1   
    35    13    40 1   
    36    14    15 2   
    37    17    18 1   
    38    18    19 1   
    39    18    41 1   
    40    18    42 1   
    41    19    20 1   
    42    19    43 1   
    43    19    44 1   
    44    20    23 ar  
    45    21    22 ar  
    46    21    45 1   
    47    22    46 1   
    48    23    24 1   
@<TRIPOS>SUBSTRUCTURE
     1 7XV         1 TEMP              0 ****  ****    0 ROOT
