@<TRIPOS>MOLECULE
7XW
   42    44     1     0     0
SMALL
abcg2


@<TRIPOS>ATOM
      1 N1          -9.8730   -30.8180    21.1510 nu         1 7XW      -0.884100
      2 C4          -8.7230   -30.0170    23.1720 ca         1 7XW      -0.088000
      3 C5          -9.8610   -30.3330    22.4640 ca         1 7XW       0.227000
      4 C6          -8.3680   -32.9840    21.8100 ca         1 7XW      -0.298500
      5 C7          -9.3900   -33.8380    22.2050 ca         1 7XW      -0.014500
      6 C8          -9.1430   -34.7520    23.2150 ca         1 7XW      -0.127500
      7 C10         -6.8760   -33.9550    23.4040 ca         1 7XW      -0.127500
      8 C13         -6.4900   -30.0160    25.1430 c2         1 7XW      -0.246200
      9 C15         -6.4480   -28.2910    27.2580 c6         1 7XW       0.154600
     10 O2          -7.4940   -31.0320    20.3080 o          1 7XW      -0.529500
     11 S           -8.6970   -31.8120    20.5250 sy         1 7XW       1.162600
     12 O1          -9.3350   -32.4740    19.4020 o          1 7XW      -0.529500
     13 C11         -7.1110   -33.0310    22.3940 ca         1 7XW      -0.014500
     14 C9          -7.8880   -34.8110    23.8130 ca         1 7XW      -0.053000
     15 C1         -11.1000   -30.1340    23.1100 ca         1 7XW       0.557300
     16 O          -12.1880   -30.4180    22.3940 os         1 7XW      -0.476300
     17 C          -13.4610   -30.1860    22.9810 c3         1 7XW       0.163900
     18 C3          -8.8140   -29.5680    24.4990 ca         1 7XW      -0.098800
     19 C2         -10.0880   -29.4060    25.0150 ca         1 7XW       0.366900
     20 N          -11.1980   -29.6770    24.3290 nb         1 7XW      -0.736000
     21 C12         -7.6060   -29.2990    25.2980 ce         1 7XW      -0.044400
     22 C16         -7.6380   -28.1910    26.3190 c6         1 7XW      -0.074200
     23 O3          -5.2480   -28.4830    26.5430 os         1 7XW      -0.441000
     24 C14         -5.2270   -29.7250    25.8880 c6         1 7XW       0.186800
     25 H1         -10.7890   -31.0130    20.7650 hn         1 7XW       0.520000
     26 H2          -7.7490   -30.0900    22.7060 ha         1 7XW       0.144000
     27 H3         -10.3680   -33.7910    21.7430 ha         1 7XW       0.133000
     28 H4          -9.9290   -35.4220    23.5350 ha         1 7XW       0.120500
     29 H5          -5.9010   -34.0000    23.8690 ha         1 7XW       0.120500
     30 H6          -6.4550   -30.8640    24.4660 ha         1 7XW       0.181000
     31 H7          -6.3350   -27.3740    27.8370 h1         1 7XW       0.047200
     32 H8          -6.6100   -29.1130    27.9700 h1         1 7XW       0.047200
     33 H9          -6.3240   -32.3600    22.0790 ha         1 7XW       0.133000
     34 H10         -7.7020   -35.5270    24.6020 ha         1 7XW       0.118000
     35 H11        -14.1910   -30.4630    22.2240 h1         1 7XW       0.049367
     36 H12        -13.6110   -30.7990    23.8700 h1         1 7XW       0.049367
     37 H13        -13.5950   -29.1370    23.2470 h1         1 7XW       0.049367
     38 H14        -10.2420   -29.0600    26.0300 h4         1 7XW       0.024100
     39 H15         -7.6560   -27.2220    25.8110 hc         1 7XW       0.059700
     40 H16         -8.5500   -28.2360    26.9180 hc         1 7XW       0.059700
     41 H17         -5.0260   -30.5440    26.5980 h1         1 7XW       0.053700
     42 H18         -4.3840   -29.7070    25.1920 h1         1 7XW       0.053700
@<TRIPOS>BOND
     1     1     3 1   
     2     1    11 1   
     3     1    25 1   
     4     2     3 ar  
     5     2    18 ar  
     6     2    26 1   
     7     3    15 ar  
     8     4     5 ar  
     9     4    11 1   
    10     4    13 ar  
    11     5     6 ar  
    12     5    27 1   
    13     6    14 ar  
    14     6    28 1   
    15     7    13 ar  
    16     7    14 ar  
    17     7    29 1   
    18     8    21 2   
    19     8    24 1   
    20     8    30 1   
    21     9    22 1   
    22     9    23 1   
    23     9    31 1   
    24     9    32 1   
    25    10    11 2   
    26    11    12 2   
    27    13    33 1   
    28    14    34 1   
    29    15    16 1   
    30    15    20 ar  
    31    16    17 1   
    32    17    35 1   
    33    17    36 1   
    34    17    37 1   
    35    18    19 ar  
    36    18    21 1   
    37    19    20 ar  
    38    19    38 1   
    39    21    22 1   
    40    22    39 1   
    41    22    40 1   
    42    23    24 1   
    43    24    41 1   
    44    24    42 1   
@<TRIPOS>SUBSTRUCTURE
     1 7XW         1 TEMP              0 ****  ****    0 ROOT
