@<TRIPOS>MOLECULE
7XW
   42    44     1     0     0
SMALL
No Charge or Current Charge


@<TRIPOS>ATOM
      1 N1          -9.8110   -30.7550    21.1910 nu         1 7XW      -0.884100
      2 C4          -8.7060   -30.0020    23.2520 ca         1 7XW      -0.088000
      3 C5          -9.8770   -30.2910    22.5250 ca         1 7XW       0.227000
      4 C6          -8.3560   -33.0400    21.6760 ca         1 7XW      -0.298500
      5 C7          -9.3270   -34.0420    21.8860 ca         1 7XW      -0.014500
      6 C8          -9.1020   -35.0480    22.8410 ca         1 7XW      -0.127500
      7 C10         -6.9440   -34.0630    23.3810 ca         1 7XW      -0.127500
      8 C13         -6.5250   -30.1160    25.3820 c2         1 7XW      -0.246200
      9 C15         -6.3240   -27.9240    27.1440 c6         1 7XW       0.154600
     10 O2          -7.4830   -30.8810    20.3190 o          1 7XW      -0.529500
     11 S           -8.6610   -31.7390    20.4740 sy         1 7XW       1.162600
     12 O1          -9.3950   -32.2820    19.3310 o          1 7XW      -0.529500
     13 C11         -7.1620   -33.0540    22.4270 ca         1 7XW      -0.014500
     14 C9          -7.9120   -35.0600    23.5900 ca         1 7XW      -0.053000
     15 C1         -11.1320   -30.1020    23.1920 ca         1 7XW       0.557300
     16 O          -12.2900   -30.3890    22.4880 os         1 7XW      -0.476300
     17 C          -13.5920   -30.2300    23.0860 c3         1 7XW       0.163900
     18 C3          -8.8120   -29.5590    24.5850 ca         1 7XW      -0.098800
     19 C2         -10.0980   -29.4100    25.1470 ca         1 7XW       0.366900
     20 N          -11.2400   -29.6710    24.4730 nb         1 7XW      -0.736000
     21 C12         -7.5810   -29.2690    25.3750 ce         1 7XW      -0.044400
     22 C16         -7.5120   -27.9470    26.1540 c6         1 7XW      -0.074200
     23 O3          -5.1440   -28.4540    26.5080 os         1 7XW      -0.441000
     24 C14         -5.2470   -29.8520    26.1660 c6         1 7XW       0.186800
     25 H1         -10.6930   -31.0280    20.7710 hn         1 7XW       0.520000
     26 H2          -7.7280   -30.1040    22.7950 ha         1 7XW       0.144000
     27 H3         -10.2550   -34.0420    21.3170 ha         1 7XW       0.133000
     28 H4          -9.8510   -35.8200    23.0030 ha         1 7XW       0.120500
     29 H5          -6.0230   -34.0720    23.9600 ha         1 7XW       0.120500
     30 H6          -6.5540   -31.0550    24.8290 ha         1 7XW       0.181000
     31 H7          -6.1290   -26.8950    27.4770 h1         1 7XW       0.047200
     32 H8          -6.5580   -28.5320    28.0300 h1         1 7XW       0.047200
     33 H9          -6.4010   -32.2890    22.2780 ha         1 7XW       0.133000
     34 H10         -7.7410   -35.8390    24.3290 ha         1 7XW       0.118000
     35 H11        -14.3770   -30.5060    22.3700 h1         1 7XW       0.049367
     36 H12        -13.6990   -30.8710    23.9700 h1         1 7XW       0.049367
     37 H13        -13.7610   -29.1880    23.3880 h1         1 7XW       0.049367
     38 H14        -10.2210   -29.0820    26.1780 h4         1 7XW       0.024100
     39 H15         -7.4060   -27.1170    25.4430 hc         1 7XW       0.059700
     40 H16         -8.4410   -27.7630    26.7090 hc         1 7XW       0.059700
     41 H17         -5.2450   -30.4500    27.0900 h1         1 7XW       0.053700
     42 H18         -4.3680   -30.1400    25.5720 h1         1 7XW       0.053700
@<TRIPOS>BOND
     1     1     3 1   
     2     1    11 1   
     3     1    25 1   
     4     2     3 ar  
     5     2    18 ar  
     6     2    26 1   
     7     3    15 ar  
     8     4     5 ar  
     9     4    11 1   
    10     4    13 ar  
    11     5     6 ar  
    12     5    27 1   
    13     6    14 ar  
    14     6    28 1   
    15     7    13 ar  
    16     7    14 ar  
    17     7    29 1   
    18     8    21 2   
    19     8    24 1   
    20     8    30 1   
    21     9    22 1   
    22     9    23 1   
    23     9    31 1   
    24     9    32 1   
    25    10    11 2   
    26    11    12 2   
    27    13    33 1   
    28    14    34 1   
    29    15    16 1   
    30    15    20 ar  
    31    16    17 1   
    32    17    35 1   
    33    17    36 1   
    34    17    37 1   
    35    18    19 ar  
    36    18    21 1   
    37    19    20 ar  
    38    19    38 1   
    39    21    22 1   
    40    22    39 1   
    41    22    40 1   
    42    23    24 1   
    43    24    41 1   
    44    24    42 1   
@<TRIPOS>SUBSTRUCTURE
     1 7XW         1 TEMP              0 ****  ****    0 ROOT
