@<TRIPOS>MOLECULE
7XX
   29    30     1     0     0
SMALL
abcg2


@<TRIPOS>ATOM
      1 C1          -2.9450    -0.8400    -2.1860 ca         1 7XX      -0.106000
      2 C2          -1.8150    -1.4800    -1.7000 ca         1 7XX      -0.074000
      3 C3          -3.5950     0.1090    -1.4140 ca         1 7XX      -0.090000
      4 C4           1.3710     0.1740    -0.3920 cc         1 7XX      -0.085000
      5 C5           2.3690    -1.6350     0.4840 cd         1 7XX      -0.096000
      6 C6          -1.3190    -1.1660    -0.4420 ca         1 7XX      -0.137600
      7 C7           1.1430    -1.1480     0.0530 cc         1 7XX      -0.267600
      8 C8          -3.1110     0.4180    -0.1520 ca         1 7XX       0.111000
      9 C9          -1.9740    -0.2180     0.3350 ca         1 7XX       0.138000
     10 C10          2.7060     0.4420    -0.2170 cd         1 7XX      -0.259600
     11 C11         -0.1000    -1.8880     0.0620 c          1 7XX       0.633300
     12 C12          3.4450     1.6920    -0.4760 c          1 7XX       0.648700
     13 N14          3.2950    -0.6820     0.3290 na         1 7XX       0.074000
     14 N15          2.8270     2.5520    -1.3010 nt         1 7XX      -0.599000
     15 O16         -0.1900    -3.0510     0.4050 o          1 7XX      -0.519100
     16 O17          4.5290     1.9290     0.0430 o          1 7XX      -0.618100
     17 CL1         -3.9310     1.5890     0.8070 cl         1 7XX      -0.170000
     18 CL2         -1.3770     0.1480     1.9090 cl         1 7XX      -0.159000
     19 H1          -3.3240    -1.0790    -3.1700 ha         1 7XX       0.124000
     20 H2          -1.3090    -2.2190    -2.3070 ha         1 7XX       0.129000
     21 H3          -4.4780     0.6100    -1.7860 ha         1 7XX       0.133000
     22 H4           0.6290     0.8540    -0.7820 ha         1 7XX       0.138000
     23 H5           2.6270    -2.6020     0.8850 h4         1 7XX       0.165000
     24 H6           4.9860    -0.2380     1.4980 h1         1 7XX       0.064700
     25 H7           4.8300    -1.9130     0.9510 h1         1 7XX       0.064700
     26 H8           5.3300    -0.6590    -0.1860 h1         1 7XX       0.064700
     27 H9           1.9970     2.3120    -1.8150 hn         1 7XX       0.319000
     28 H10          3.2530     3.4410    -1.5050 hn         1 7XX       0.319000
     29 C13          4.6950    -0.8740     0.6680 c3         1 7XX       0.054900
@<TRIPOS>BOND
     1     1     2 ar  
     2     1     3 ar  
     3     1    19 1   
     4     2     6 ar  
     5     2    20 1   
     6     3     8 ar  
     7     3    21 1   
     8     4     7 1   
     9     4    10 2   
    10     4    22 1   
    11     5     7 2   
    12     5    13 1   
    13     5    23 1   
    14     6     9 ar  
    15     6    11 1   
    16     7    11 1   
    17     8     9 ar  
    18     8    17 1   
    19     9    18 1   
    20    10    12 1   
    21    10    13 1   
    22    11    15 2   
    23    12    14 1   
    24    12    16 2   
    25    13    29 1   
    26    14    27 1   
    27    14    28 1   
    28    24    29 1   
    29    25    29 1   
    30    26    29 1   
@<TRIPOS>SUBSTRUCTURE
     1 7XX         1 TEMP              0 ****  ****    0 ROOT
