@<TRIPOS>MOLECULE
7XX
   29    30     1     0     0
SMALL
No Charge or Current Charge


@<TRIPOS>ATOM
      1 C1          -3.1830    -0.8820    -2.0970 ca         1 7XX      -0.106000
      2 C2          -2.0230    -1.6010    -1.7670 ca         1 7XX      -0.074000
      3 C3          -3.5970     0.1910    -1.2920 ca         1 7XX      -0.090000
      4 C4           1.4940     0.0400    -0.6280 cc         1 7XX      -0.085000
      5 C5           2.3690    -1.7340     0.4630 cd         1 7XX      -0.096000
      6 C6          -1.2560    -1.2460    -0.6360 ca         1 7XX      -0.137600
      7 C7           1.2550    -1.2810    -0.1950 cc         1 7XX      -0.267600
      8 C8          -2.8600     0.5370    -0.1480 ca         1 7XX       0.111000
      9 C9          -1.6910    -0.1820     0.1910 ca         1 7XX       0.138000
     10 C10          2.7670     0.4090    -0.2640 cd         1 7XX      -0.259600
     11 C11         -0.0170    -2.0390    -0.3280 c          1 7XX       0.633300
     12 C12          3.4060     1.7230    -0.5370 c          1 7XX       0.648700
     13 N14          3.3110    -0.6990     0.4120 na         1 7XX       0.074000
     14 N15          2.6500     2.6150    -1.2060 nt         1 7XX      -0.599000
     15 O16         -0.0820    -3.2450    -0.1180 o          1 7XX      -0.519100
     16 O17          4.5370     2.0220    -0.1980 o          1 7XX      -0.618100
     17 Cl1         -3.4340     1.8690     0.8580 cl         1 7XX      -0.170000
     18 Cl2         -0.8380     0.2120     1.6920 cl         1 7XX      -0.159000
     19 H1          -3.7610    -1.1560    -2.9780 ha         1 7XX       0.124000
     20 H2          -1.7090    -2.4300    -2.3990 ha         1 7XX       0.129000
     21 H3          -4.4960     0.7470    -1.5470 ha         1 7XX       0.133000
     22 H4           0.7690     0.6480    -1.1630 ha         1 7XX       0.138000
     23 H5           2.5620    -2.6810     0.9550 h4         1 7XX       0.165000
     24 H6           4.7690     0.0030     1.7620 h1         1 7XX       0.064700
     25 H7           4.8090    -1.7580     1.4600 h1         1 7XX       0.064700
     26 H8           5.4080    -0.6260     0.2120 h1         1 7XX       0.064700
     27 H9           1.7140     2.3730    -1.4880 hn         1 7XX       0.319000
     28 H10          3.0330     3.5230    -1.4180 hn         1 7XX       0.319000
     29 C13          4.6570    -0.7750     0.9980 c3         1 7XX       0.054900
@<TRIPOS>BOND
     1     1     2 ar  
     2     1     3 ar  
     3     1    19 1   
     4     2     6 ar  
     5     2    20 1   
     6     3     8 ar  
     7     3    21 1   
     8     4     7 1   
     9     4    10 2   
    10     4    22 1   
    11     5     7 2   
    12     5    13 1   
    13     5    23 1   
    14     6     9 ar  
    15     6    11 1   
    16     7    11 1   
    17     8     9 ar  
    18     8    17 1   
    19     9    18 1   
    20    10    12 1   
    21    10    13 1   
    22    11    15 2   
    23    12    14 1   
    24    12    16 2   
    25    13    29 1   
    26    14    27 1   
    27    14    28 1   
    28    24    29 1   
    29    25    29 1   
    30    26    29 1   
@<TRIPOS>SUBSTRUCTURE
     1 7XX         1 TEMP              0 ****  ****    0 ROOT
