@<TRIPOS>MOLECULE
7XY
   65    68     1     0     0
SMALL
No Charge or Current Charge


@<TRIPOS>ATOM
      1 CAV          6.9460    -0.7130     3.0890 ca         1 7XY      -0.092000
      2 CBE          7.8580    -1.5370     2.4110 ca         1 7XY       0.120000
      3 ClF          9.5830    -1.3660     2.7100 cl         1 7XY      -0.239000
      4 CAN          7.3980    -2.5020     1.5010 ca         1 7XY      -0.114000
      5 CAM          6.0200    -2.6420     1.2670 ca         1 7XY      -0.101000
      6 CAO          5.1040    -1.8190     1.9460 ca         1 7XY      -0.071000
      7 CBF          5.5620    -0.8480     2.8600 ca         1 7XY      -0.061300
      8 CAY          4.5700     0.0280     3.6160 c3         1 7XY       0.163300
      9 NBL          3.6200     0.7580     2.7460 n          1 7XY      -0.415800
     10 CBD          4.0610     1.8200     1.9060 c          1 7XY       0.466100
     11 OAB          3.2520     2.4190     1.1900 o          1 7XY      -0.639100
     12 CBC          5.6400     2.2330     1.9060 c          1 7XY       0.683000
     13 OAE          6.3010     2.0100     0.8930 o          1 7XY      -0.690000
     14 OAA          6.0950     2.8040     2.8950 o          1 7XY      -0.690000
     15 CAZ          2.1920     0.3730     2.8280 c3         1 7XY       0.147300
     16 CBG          1.6190     0.7360     4.1690 cc         1 7XY      -0.159300
     17 SBB          1.0530    -0.5060     5.2820 ss         1 7XY       0.279000
     18 CAT          1.4810     1.9890     4.7170 cd         1 7XY      -0.145000
     19 CAU          0.9660     1.9770     6.0410 cd         1 7XY       0.011000
     20 CBJ          0.7180     0.7080     6.5020 cc         1 7XY      -0.500500
     21 SBM          0.1520     0.2560     8.1180 sy         1 7XY       1.196600
     22 OAC         -0.5120     1.3970     8.7510 o          1 7XY      -0.552000
     23 OAD         -0.4630    -1.0670     8.0230 o          1 7XY      -0.552000
     24 NBA          1.5530    -0.0100     8.9740 n7         1 7XY      -0.864300
     25 CAW          2.8510     0.3590     8.3760 c3         1 7XY       0.197800
     26 CAX          4.0230    -0.1060     9.2680 c3         1 7XY      -0.064400
     27 CBK          4.2380    -1.6460     9.2870 c3         1 7XY       0.030900
     28 CBI          4.5720    -2.1780     7.8900 ca         1 7XY      -0.081300
     29 CAR          3.6180    -2.9190     7.1610 ca         1 7XY      -0.111000
     30 CAK          3.9240    -3.4080     5.8790 ca         1 7XY      -0.107000
     31 CAH          5.1880    -3.1670     5.3170 ca         1 7XY      -0.103500
     32 CAL          6.1420    -2.4270     6.0340 ca         1 7XY      -0.107000
     33 CAS          5.8340    -1.9300     7.3120 ca         1 7XY      -0.111000
     34 CBH          5.2770    -2.1330    10.3110 ca         1 7XY      -0.081300
     35 CAP          5.1930    -3.4620    10.7750 ca         1 7XY      -0.111000
     36 CAI          6.1220    -3.9590    11.7050 ca         1 7XY      -0.107000
     37 CAG          7.1520    -3.1320    12.1800 ca         1 7XY      -0.103500
     38 CAJ          7.2520    -1.8090    11.7210 ca         1 7XY      -0.107000
     39 CAQ          6.3220    -1.3110    10.7910 ca         1 7XY      -0.111000
     40 HAV          7.3150     0.0270     3.7940 ha         1 7XY       0.121000
     41 HAN          8.1080    -3.1390     0.9790 ha         1 7XY       0.114000
     42 HAM          5.6600    -3.3900     0.5640 ha         1 7XY       0.108000
     43 HAO          4.0390    -1.9390     1.7640 ha         1 7XY       0.128000
     44 HAY1         4.0090    -0.6150     4.3060 h1         1 7XY       0.053200
     45 HAY2         5.1090     0.7530     4.2390 h1         1 7XY       0.053200
     46 HAZ1         2.1070    -0.7110     2.6740 h1         1 7XY       0.058700
     47 HAZ2         1.6030     0.8590     2.0400 h1         1 7XY       0.058700
     48 HAT          1.7640     2.8990     4.1990 ha         1 7XY       0.162000
     49 HAU          0.8170     2.8760     6.6330 ha         1 7XY       0.141000
     50 HNBA         1.4920    -1.0200     9.0680 hn         1 7XY       0.481000
     51 HAW1         2.9850    -0.0810     7.3790 h1         1 7XY       0.059200
     52 HAW2         2.9120     1.4500     8.2610 h1         1 7XY       0.059200
     53 HAX1         4.9320     0.3810     8.8970 hc         1 7XY       0.050200
     54 HAX2         3.8610     0.2590    10.2900 hc         1 7XY       0.050200
     55 HBK          3.2810    -2.0820     9.6000 hc         1 7XY       0.053700
     56 HAR          2.6370    -3.1190     7.5860 ha         1 7XY       0.106250
     57 HAK          3.1830    -3.9790     5.3240 ha         1 7XY       0.117000
     58 HAH          5.4280    -3.5540     4.3290 ha         1 7XY       0.124500
     59 HAL          7.1220    -2.2400     5.6000 ha         1 7XY       0.117000
     60 HAS          6.5820    -1.3590     7.8560 ha         1 7XY       0.106250
     61 HAP          4.4030    -4.1160    10.4110 ha         1 7XY       0.106250
     62 HAI          6.0440    -4.9870    12.0550 ha         1 7XY       0.117000
     63 HAG          7.8730    -3.5160    12.8990 ha         1 7XY       0.124500
     64 HAJ          8.0520    -1.1680    12.0850 ha         1 7XY       0.117000
     65 HAQ          6.4320    -0.2860    10.4500 ha         1 7XY       0.106250
@<TRIPOS>BOND
     1     1     2 ar  
     2     1     7 ar  
     3     1    40 1   
     4     2     3 1   
     5     2     4 ar  
     6     4     5 ar  
     7     4    41 1   
     8     5     6 ar  
     9     5    42 1   
    10     6     7 ar  
    11     6    43 1   
    12     7     8 1   
    13     8     9 1   
    14     8    44 1   
    15     8    45 1   
    16     9    10 1   
    17     9    15 1   
    18    10    11 2   
    19    10    12 1   
    20    12    13 1   
    21    12    14 1   
    22    15    16 1   
    23    15    46 1   
    24    15    47 1   
    25    16    17 1   
    26    16    18 2   
    27    17    20 1   
    28    18    19 1   
    29    18    48 1   
    30    19    20 2   
    31    19    49 1   
    32    20    21 1   
    33    21    22 2   
    34    21    23 2   
    35    21    24 1   
    36    24    25 1   
    37    24    50 1   
    38    25    26 1   
    39    25    51 1   
    40    25    52 1   
    41    26    27 1   
    42    26    53 1   
    43    26    54 1   
    44    27    28 1   
    45    27    34 1   
    46    27    55 1   
    47    28    29 ar  
    48    28    33 ar  
    49    29    30 ar  
    50    29    56 1   
    51    30    31 ar  
    52    30    57 1   
    53    31    32 ar  
    54    31    58 1   
    55    32    33 ar  
    56    32    59 1   
    57    33    60 1   
    58    34    35 ar  
    59    34    39 ar  
    60    35    36 ar  
    61    35    61 1   
    62    36    37 ar  
    63    36    62 1   
    64    37    38 ar  
    65    37    63 1   
    66    38    39 ar  
    67    38    64 1   
    68    39    65 1   
@<TRIPOS>SUBSTRUCTURE
     1 7XY         1 TEMP              0 ****  ****    0 ROOT
