@<TRIPOS>MOLECULE
7XY
   65    68     1     0     0
SMALL
bcc


@<TRIPOS>ATOM
      1 CAV          6.0170    -2.5470     1.9750 ca         1 7XY      -0.110000
      2 CBE          6.7280    -3.1210     0.9350 ca         1 7XY       0.028400
      3 CLF          7.8600    -4.3890     1.2840 cl         1 7XY      -0.147400
      4 CAN          6.5610    -2.7000    -0.3750 ca         1 7XY      -0.132000
      5 CAM          5.6540    -1.6820    -0.6290 ca         1 7XY      -0.119000
      6 CAO          4.9340    -1.0970     0.4040 ca         1 7XY      -0.089000
      7 CBF          5.1080    -1.5270     1.7130 ca         1 7XY      -0.061300
      8 CAY          4.3130    -0.9590     2.8630 c3         1 7XY       0.163300
      9 NBL          3.7910     0.3720     2.6300 n          1 7XY      -0.482800
     10 CBD          4.5910     1.4660     2.5700 c          1 7XY       0.533100
     11 OAB          4.1290     2.6000     2.5250 o          1 7XY      -0.639100
     12 CBC          6.1180     1.2640     2.5360 c          1 7XY       0.893600
     13 OAE          6.6630     1.6750     1.5030 o          1 7XY      -0.795300
     14 OAA          6.6330     0.7800     3.5570 o          1 7XY      -0.795300
     15 CAZ          2.3510     0.5550     2.6370 c3         1 7XY       0.147300
     16 CBG          1.8040     0.7600     4.0180 cc         1 7XY      -0.014400
     17 SBB          1.2250    -0.5720     4.9360 ss         1 7XY      -0.010800
     18 CAT          1.7140     1.9280     4.7220 cd         1 7XY      -0.163000
     19 CAU          1.1780     1.7540     6.0180 cd         1 7XY      -0.007000
     20 CBJ          0.8680     0.4480     6.2680 cc         1 7XY      -0.355600
     21 SBM          0.2660    -0.2150     7.7660 sy         1 7XY       1.338200
     22 OAC         -0.3630     0.8750     8.4890 o          1 7XY      -0.622800
     23 OAD         -0.4710    -1.4250     7.4450 o          1 7XY      -0.622800
     24 NBA          1.5690    -0.6980     8.6450 n7         1 7XY      -0.809100
     25 CAW          2.5830     0.2970     8.9920 c3         1 7XY       0.197800
     26 CAX          3.5140    -0.2300    10.0730 c3         1 7XY      -0.064400
     27 CBK          4.2050    -1.5590     9.7370 c3         1 7XY       0.030900
     28 CBI          4.9270    -1.5600     8.4040 ca         1 7XY      -0.081300
     29 CAR          4.8950    -2.7050     7.6120 ca         1 7XY      -0.129000
     30 CAK          5.5790    -2.7590     6.4040 ca         1 7XY      -0.125000
     31 CAH          6.2950    -1.6560     5.9630 ca         1 7XY      -0.121500
     32 CAL          6.3210    -0.5020     6.7350 ca         1 7XY      -0.125000
     33 CAS          5.6510    -0.4600     7.9490 ca         1 7XY      -0.129000
     34 CBH          5.1380    -1.9860    10.8530 ca         1 7XY      -0.081300
     35 CAP          4.9400    -3.2040    11.4970 ca         1 7XY      -0.129000
     36 CAI          5.7880    -3.6220    12.5150 ca         1 7XY      -0.125000
     37 CAG          6.8520    -2.8210    12.9060 ca         1 7XY      -0.121500
     38 CAJ          7.0580    -1.6020    12.2700 ca         1 7XY      -0.125000
     39 CAQ          6.2090    -1.1900    11.2530 ca         1 7XY      -0.129000
     40 HAV          6.1680    -2.8940     2.9900 ha         1 7XY       0.139000
     41 HAN          7.1280    -3.1500    -1.1790 ha         1 7XY       0.132000
     42 HAM          5.5130    -1.3400    -1.6450 ha         1 7XY       0.126000
     43 HAO          4.2360    -0.3010     0.1810 ha         1 7XY       0.146000
     44 HAY1         3.4620    -1.6190     3.0420 h1         1 7XY       0.053200
     45 HAY2         4.9080    -0.9810     3.7760 h1         1 7XY       0.053200
     46 HAZ1         1.8920    -0.3140     2.1650 h1         1 7XY       0.058700
     47 HAZ2         2.0920     1.4170     2.0240 h1         1 7XY       0.058700
     48 HAT          2.0210     2.8820     4.3190 ha         1 7XY       0.180000
     49 HAU          1.0230     2.5570     6.7240 ha         1 7XY       0.159000
     50 HNBA         1.9500    -1.5610     8.2710 hn         1 7XY       0.425800
     51 HAW1         3.1500     0.6060     8.1070 h1         1 7XY       0.059200
     52 HAW2         2.0770     1.1810     9.3790 h1         1 7XY       0.059200
     53 HAX1         4.2530     0.5500    10.2670 hc         1 7XY       0.050200
     54 HAX2         2.9510    -0.3610    11.0000 hc         1 7XY       0.050200
     55 HBK          3.4300    -2.3300     9.6820 hc         1 7XY       0.053700
     56 HAR          4.3330    -3.5700     7.9490 ha         1 7XY       0.124250
     57 HAK          5.5460    -3.6610     5.8070 ha         1 7XY       0.135000
     58 HAH          6.8260    -1.6790     5.0200 ha         1 7XY       0.142500
     59 HAL          6.8590     0.3670     6.3830 ha         1 7XY       0.135000
     60 HAS          5.6890     0.4490     8.5370 ha         1 7XY       0.124250
     61 HAP          4.1130    -3.8370    11.1970 ha         1 7XY       0.124250
     62 HAI          5.6160    -4.5740    13.0000 ha         1 7XY       0.135000
     63 HAG          7.5150    -3.1430    13.6980 ha         1 7XY       0.142500
     64 HAJ          7.8840    -0.9690    12.5690 ha         1 7XY       0.135000
     65 HAQ          6.3960    -0.2380    10.7700 ha         1 7XY       0.124250
@<TRIPOS>BOND
     1     1     2 ar  
     2     1     7 ar  
     3     1    40 1   
     4     2     3 1   
     5     2     4 ar  
     6     4     5 ar  
     7     4    41 1   
     8     5     6 ar  
     9     5    42 1   
    10     6     7 ar  
    11     6    43 1   
    12     7     8 1   
    13     8     9 1   
    14     8    44 1   
    15     8    45 1   
    16     9    10 1   
    17     9    15 1   
    18    10    11 2   
    19    10    12 1   
    20    12    13 1   
    21    12    14 1   
    22    15    16 1   
    23    15    46 1   
    24    15    47 1   
    25    16    17 1   
    26    16    18 2   
    27    17    20 1   
    28    18    19 1   
    29    18    48 1   
    30    19    20 2   
    31    19    49 1   
    32    20    21 1   
    33    21    22 2   
    34    21    23 2   
    35    21    24 1   
    36    24    25 1   
    37    24    50 1   
    38    25    26 1   
    39    25    51 1   
    40    25    52 1   
    41    26    27 1   
    42    26    53 1   
    43    26    54 1   
    44    27    28 1   
    45    27    34 1   
    46    27    55 1   
    47    28    29 ar  
    48    28    33 ar  
    49    29    30 ar  
    50    29    56 1   
    51    30    31 ar  
    52    30    57 1   
    53    31    32 ar  
    54    31    58 1   
    55    32    33 ar  
    56    32    59 1   
    57    33    60 1   
    58    34    35 ar  
    59    34    39 ar  
    60    35    36 ar  
    61    35    61 1   
    62    36    37 ar  
    63    36    62 1   
    64    37    38 ar  
    65    37    63 1   
    66    38    39 ar  
    67    38    64 1   
    68    39    65 1   
@<TRIPOS>SUBSTRUCTURE
     1 7XY         1 TEMP              0 ****  ****    0 ROOT
