@<TRIPOS>MOLECULE
7XZ
   44    45     1     0     0
SMALL
abcg2


@<TRIPOS>ATOM
      1 C4         -46.6460   -15.4810    63.0270 ca         1 7XZ      -0.010000
      2 C14        -47.4580   -12.2760    69.6910 c3         1 7XZ      -0.035500
      3 C5         -46.7460   -14.1350    63.4150 ca         1 7XZ      -0.149800
      4 C6         -46.5540   -13.6620    64.7710 cc         1 7XZ       0.071600
      5 C11        -48.7290   -12.4040    67.5610 c          1 7XZ       0.581100
      6 C7         -46.2080   -14.6800    65.8070 c3         1 7XZ      -0.090900
      7 C8         -46.6950   -12.3360    65.0380 cd         1 7XZ      -0.208400
      8 C9         -46.5620   -11.6870    66.3880 c3         1 7XZ      -0.013200
      9 C10        -47.9180   -11.2600    66.9800 c3         1 7XZ      -0.146400
     10 C12        -49.3150   -13.8550    69.3690 c3         1 7XZ      -0.035500
     11 C13        -49.5420   -15.2020    68.6430 c          1 7XZ       0.724000
     12 N1         -48.3990   -12.8920    68.7760 n          1 7XZ      -0.322800
     13 C3         -46.8540   -15.8710    61.7270 ca         1 7XZ      -0.186000
     14 C1         -47.7200   -14.4830    58.4800 c3         1 7XZ       0.153900
     15 C15        -46.2050   -13.1010    70.0700 c          1 7XZ       0.724000
     16 C16        -46.9930   -11.4060    63.9560 c          1 7XZ       0.674300
     17 C17        -47.0630   -13.2190    62.4190 ca         1 7XZ       0.195100
     18 C18        -47.2820   -13.5810    61.0960 ca         1 7XZ      -0.239000
     19 C2         -47.1780   -14.9200    60.7460 ca         1 7XZ       0.154100
     20 O1         -47.3690   -15.3900    59.5080 os         1 7XZ      -0.348100
     21 O2         -49.6780   -12.8600    66.9280 o          1 7XZ      -0.645100
     22 O3         -50.6560   -15.7180    68.8640 o          1 7XZ      -0.740750
     23 O4         -48.6050   -15.6930    67.9900 o          1 7XZ      -0.740750
     24 O5         -45.7670   -13.9210    69.2430 o          1 7XZ      -0.740750
     25 O6         -45.7100   -12.8070    71.1750 o          1 7XZ      -0.740750
     26 O7         -47.0950   -10.2080    64.0700 o          1 7XZ      -0.528000
     27 O8         -47.1680   -11.9050    62.7070 os         1 7XZ      -0.358200
     28 H1         -46.4020   -16.2350    63.7610 ha         1 7XZ       0.138000
     29 H2         -47.9910   -12.0010    70.6060 h1         1 7XZ       0.012450
     30 H3         -47.0900   -11.3360    69.2790 h1         1 7XZ       0.012450
     31 H4         -46.0700   -14.2630    66.7980 hc         1 7XZ       0.085033
     32 H5         -46.9960   -15.4290    65.8880 hc         1 7XZ       0.085033
     33 H6         -45.2920   -15.2030    65.5250 hc         1 7XZ       0.085033
     34 H7         -46.0400   -12.3340    67.0910 hc         1 7XZ       0.067700
     35 H8         -45.9440   -10.7930    66.2880 hc         1 7XZ       0.067700
     36 H9         -47.7460   -10.4820    67.7240 hc         1 7XZ       0.040700
     37 H10        -48.5330   -10.8030    66.2070 hc         1 7XZ       0.040700
     38 H11        -48.9180   -14.0980    70.3580 h1         1 7XZ       0.012450
     39 H12        -50.2860   -13.3810    69.5400 h1         1 7XZ       0.012450
     40 H13        -46.7730   -16.9140    61.4490 ha         1 7XZ       0.118000
     41 H14        -47.8360   -15.0730    57.5750 h1         1 7XZ       0.033367
     42 H15        -48.6630   -13.9750    58.6940 h1         1 7XZ       0.033367
     43 H16        -46.9420   -13.7340    58.3170 h1         1 7XZ       0.033367
     44 H17        -47.5260   -12.8100    60.3770 ha         1 7XZ       0.123000
@<TRIPOS>BOND
     1     1     3 ar  
     2     1    13 ar  
     3     1    28 1   
     4     2    12 1   
     5     2    15 1   
     6     2    29 1   
     7     2    30 1   
     8     3     4 1   
     9     3    17 ar  
    10     4     6 1   
    11     4     7 2   
    12     5     9 1   
    13     5    12 1   
    14     5    21 2   
    15     6    31 1   
    16     6    32 1   
    17     6    33 1   
    18     7     8 1   
    19     7    16 1   
    20     8     9 1   
    21     8    34 1   
    22     8    35 1   
    23     9    36 1   
    24     9    37 1   
    25    10    11 1   
    26    10    12 1   
    27    10    38 1   
    28    10    39 1   
    29    11    22 1   
    30    11    23 1   
    31    13    19 ar  
    32    13    40 1   
    33    14    20 1   
    34    14    41 1   
    35    14    42 1   
    36    14    43 1   
    37    15    24 1   
    38    15    25 1   
    39    16    26 2   
    40    16    27 1   
    41    17    18 ar  
    42    17    27 1   
    43    18    19 ar  
    44    18    44 1   
    45    19    20 1   
@<TRIPOS>SUBSTRUCTURE
     1 7XZ         1 TEMP              0 ****  ****    0 ROOT
