@<TRIPOS>MOLECULE
7XZ
   44    45     1     0     0
SMALL
No Charge or Current Charge


@<TRIPOS>ATOM
      1 C4         -46.6380   -15.4040    63.0200 ca         1 7XZ      -0.010000
      2 C14        -47.2570   -12.3860    69.7020 c3         1 7XZ      -0.035500
      3 C5         -46.8220   -14.0420    63.3620 ca         1 7XZ      -0.149800
      4 C6         -46.5910   -13.5610    64.7370 cc         1 7XZ       0.071600
      5 C11        -48.5320   -12.3640    67.4910 c          1 7XZ       0.581100
      6 C7         -46.2340   -14.5320    65.8450 c3         1 7XZ      -0.090900
      7 C8         -46.7130   -12.1830    64.9240 cd         1 7XZ      -0.208400
      8 C9         -46.4460   -11.4690    66.2490 c3         1 7XZ      -0.013200
      9 C10        -47.7310   -11.1180    67.0430 c3         1 7XZ      -0.146400
     10 C12        -49.2110   -14.0220    69.2670 c3         1 7XZ      -0.035500
     11 C13        -49.1160   -15.3860    68.5230 c          1 7XZ       0.724000
     12 N1         -48.3040   -12.9340    68.7750 n          1 7XZ      -0.322800
     13 C3         -46.8690   -15.8530    61.7080 ca         1 7XZ      -0.186000
     14 C1         -47.9150   -14.6210    58.3510 c3         1 7XZ       0.153900
     15 C15        -46.8070   -13.2550    70.9130 c          1 7XZ       0.724000
     16 C16        -47.1220   -11.2660    63.8100 c          1 7XZ       0.674300
     17 C17        -47.2210   -13.1590    62.3440 ca         1 7XZ       0.195100
     18 C18        -47.4540   -13.6040    61.0340 ca         1 7XZ      -0.239000
     19 C2         -47.2810   -14.9610    60.7110 ca         1 7XZ       0.154100
     20 O1         -47.4920   -15.4580    59.4420 os         1 7XZ      -0.348100
     21 O2         -49.3750   -12.8370    66.7380 o          1 7XZ      -0.645100
     22 O3         -50.1540   -15.9090    68.1360 o          1 7XZ      -0.740750
     23 O4         -48.0210   -15.9200    68.4110 o          1 7XZ      -0.740750
     24 O5         -45.8810   -14.0380    70.7550 o          1 7XZ      -0.740750
     25 O6         -47.3380   -13.0580    71.9990 o          1 7XZ      -0.740750
     26 O7         -47.2380   -10.0540    63.9460 o          1 7XZ      -0.528000
     27 O8         -47.3750   -11.8340    62.6010 os         1 7XZ      -0.358200
     28 H1         -46.3100   -16.1330    63.7560 ha         1 7XZ       0.138000
     29 H2         -47.6240   -11.4290    70.0950 h1         1 7XZ       0.012450
     30 H3         -46.3530   -12.1730    69.1200 h1         1 7XZ       0.012450
     31 H4         -46.3640   -14.1170    66.8480 hc         1 7XZ       0.085033
     32 H5         -46.8780   -15.4180    65.8120 hc         1 7XZ       0.085033
     33 H6         -45.1930   -14.8620    65.7530 hc         1 7XZ       0.085033
     34 H7         -45.7640   -12.0410    66.8860 hc         1 7XZ       0.067700
     35 H8         -45.8990   -10.5360    66.0630 hc         1 7XZ       0.067700
     36 H9         -47.4130   -10.5290    67.9100 hc         1 7XZ       0.040700
     37 H10        -48.3730   -10.4950    66.4100 hc         1 7XZ       0.040700
     38 H11        -49.0420   -14.2160    70.3320 h1         1 7XZ       0.012450
     39 H12        -50.2430   -13.6590    69.1820 h1         1 7XZ       0.012450
     40 H13        -46.7260   -16.9020    61.4640 ha         1 7XZ       0.118000
     41 H14        -48.0250   -15.2160    57.4360 h1         1 7XZ       0.033367
     42 H15        -48.8830   -14.1530    58.5720 h1         1 7XZ       0.033367
     43 H16        -47.1770   -13.8320    58.1580 h1         1 7XZ       0.033367
     44 H17        -47.7610   -12.8790    60.2880 ha         1 7XZ       0.123000
@<TRIPOS>BOND
     1     1     3 ar  
     2     1    13 ar  
     3     1    28 1   
     4     2    12 1   
     5     2    15 1   
     6     2    29 1   
     7     2    30 1   
     8     3     4 1   
     9     3    17 ar  
    10     4     6 1   
    11     4     7 2   
    12     5     9 1   
    13     5    12 1   
    14     5    21 2   
    15     6    31 1   
    16     6    32 1   
    17     6    33 1   
    18     7     8 1   
    19     7    16 1   
    20     8     9 1   
    21     8    34 1   
    22     8    35 1   
    23     9    36 1   
    24     9    37 1   
    25    10    11 1   
    26    10    12 1   
    27    10    38 1   
    28    10    39 1   
    29    11    22 1   
    30    11    23 1   
    31    13    19 ar  
    32    13    40 1   
    33    14    20 1   
    34    14    41 1   
    35    14    42 1   
    36    14    43 1   
    37    15    24 1   
    38    15    25 1   
    39    16    26 2   
    40    16    27 1   
    41    17    18 ar  
    42    17    27 1   
    43    18    19 ar  
    44    18    44 1   
    45    19    20 1   
@<TRIPOS>SUBSTRUCTURE
     1 7XZ         1 TEMP              0 ****  ****    0 ROOT
