@<TRIPOS>MOLECULE
7Y0
   62    65     1     0     0
SMALL
No Charge or Current Charge


@<TRIPOS>ATOM
      1 C1           7.8660     2.5460     0.4430 ca         1 7Y0      -0.104000
      2 C2          -7.8290    -2.5100     1.0030 ca         1 7Y0      -0.104000
      3 C3           7.7750     1.2310     0.9270 ca         1 7Y0      -0.071000
      4 C4          -7.7980    -1.1300     1.2610 ca         1 7Y0      -0.071000
      5 C5           7.4030     2.8530    -0.8460 ca         1 7Y0      -0.089000
      6 C6          -7.1590    -3.0290    -0.1170 ca         1 7Y0      -0.089000
      7 C7           4.5350    -1.1640     0.5660 cc         1 7Y0      -0.089500
      8 C8          -4.5050     1.2110     1.0400 cc         1 7Y0      -0.089500
      9 C9           5.5540    -3.1650     0.8100 cd         1 7Y0      -0.096000
     10 C10         -5.5170     3.2090     0.7560 cd         1 7Y0      -0.096000
     11 C11          7.2060     0.2130     0.1340 ca         1 7Y0      -0.136600
     12 C12         -7.0870    -0.2560     0.4110 ca         1 7Y0      -0.136600
     13 C13          5.7770    -1.8160     0.7230 cc         1 7Y0      -0.266600
     14 C14         -5.7440     1.8630     0.8710 cc         1 7Y0      -0.266600
     15 C15          6.8620     1.8430    -1.6580 ca         1 7Y0       0.110000
     16 C16         -6.4720    -2.1670    -0.9880 ca         1 7Y0       0.110000
     17 C17          6.7660     0.5180    -1.1780 ca         1 7Y0       0.136500
     18 C18         -6.4370    -0.7780    -0.7340 ca         1 7Y0       0.136500
     19 C19          3.5300    -2.1020     0.5770 cd         1 7Y0      -0.258600
     20 C20         -3.5000     2.1490     1.0530 cd         1 7Y0      -0.258600
     21 C21          7.1190    -1.1770     0.7000 c          1 7Y0       0.633300
     22 C23          2.0730    -1.8290     0.4400 c          1 7Y0       0.640700
     23 C24         -2.0450     1.8760     1.2050 c          1 7Y0       0.640700
     24 C27          0.4090     0.0440     0.1590 c3         1 7Y0       0.081500
     25 C28         -0.3830     0.0010     1.4850 c3         1 7Y0       0.081500
     26 N29          4.1680    -3.3470     0.7340 na         1 7Y0       0.074000
     27 N30         -4.1350     3.3940     0.8800 na         1 7Y0       0.074000
     28 N31          1.7670    -0.4960     0.2920 ns         1 7Y0      -0.502900
     29 N32         -1.7410     0.5420     1.3500 ns         1 7Y0      -0.502900
     30 O33          8.1310    -1.7750     1.0480 o          1 7Y0      -0.518100
     31 O34         -8.1200     1.8470     0.8020 o          1 7Y0      -0.518100
     32 O35          1.2120    -2.6960     0.4530 o          1 7Y0      -0.598600
     33 O36         -1.1830     2.7430     1.2050 o          1 7Y0      -0.598600
     34 Cl1          6.3240     2.2640    -3.2860 cl         1 7Y0      -0.171500
     35 Cl2         -5.6740    -2.8570    -2.4030 cl         1 7Y0      -0.171500
     36 Cl3          6.1710    -0.7530    -2.2580 cl         1 7Y0      -0.164000
     37 Cl4         -5.6480     0.2940    -1.9020 cl         1 7Y0      -0.164000
     38 H1           8.2960     3.3270     1.0670 ha         1 7Y0       0.125000
     39 H3           8.1340     1.0040     1.9300 ha         1 7Y0       0.131000
     40 H4          -8.3180    -0.7370     2.1340 ha         1 7Y0       0.131000
     41 H5           7.4750     3.8710    -1.2220 ha         1 7Y0       0.133000
     42 H6          -7.1840    -4.0970    -0.3180 ha         1 7Y0       0.133000
     43 H7           4.4240    -0.0880     0.4560 ha         1 7Y0       0.138000
     44 H8          -4.3940     0.1340     1.1390 ha         1 7Y0       0.138000
     45 H9           6.2510    -3.9900     0.9100 h4         1 7Y0       0.165500
     46 H10         -6.2080     4.0300     0.5920 h4         1 7Y0       0.165500
     47 H17         -0.1290    -0.5320    -0.6060 h1         1 7Y0       0.063450
     48 H18          0.4810     1.0820    -0.1910 h1         1 7Y0       0.063450
     49 H19         -0.4570    -1.0370     1.8340 h1         1 7Y0       0.063450
     50 H20          0.1550     0.5760     2.2500 h1         1 7Y0       0.063450
     51 H21          2.5470     0.1480     0.2880 hn         1 7Y0       0.322000
     52 H22         -2.5210    -0.1010     1.3440 hn         1 7Y0       0.322000
     53 C25          3.5000    -4.6550     0.7950 c3         1 7Y0       0.052900
     54 C22         -7.0740     1.2120     0.7360 c          1 7Y0       0.633300
     55 C26         -3.4660     4.7010     0.8190 c3         1 7Y0       0.052900
     56 H2          -8.3710    -3.1760     1.6700 ha         1 7Y0       0.125000
     57 H11          2.9460    -4.8270    -0.1360 h1         1 7Y0       0.065200
     58 H12          4.2450    -5.4490     0.9220 h1         1 7Y0       0.065200
     59 H13          2.8060    -4.6730     1.6430 h1         1 7Y0       0.065200
     60 H14         -2.7640     4.7150    -0.0230 h1         1 7Y0       0.065200
     61 H15         -4.2090     5.4950     0.6830 h1         1 7Y0       0.065200
     62 H16         -2.9190     4.8760     1.7530 h1         1 7Y0       0.065200
@<TRIPOS>BOND
     1     1     3 ar  
     2     1     5 ar  
     3     1    38 1   
     4     2     4 ar  
     5     2     6 ar  
     6     2    56 1   
     7     3    11 ar  
     8     3    39 1   
     9     4    12 ar  
    10     4    40 1   
    11     5    15 ar  
    12     5    41 1   
    13     6    16 ar  
    14     6    42 1   
    15     7    13 1   
    16     7    19 2   
    17     7    43 1   
    18     8    14 1   
    19     8    20 2   
    20     8    44 1   
    21     9    13 2   
    22     9    26 1   
    23     9    45 1   
    24    10    14 2   
    25    10    27 1   
    26    10    46 1   
    27    11    17 ar  
    28    11    21 1   
    29    12    18 ar  
    30    12    54 1   
    31    13    21 1   
    32    14    54 1   
    33    15    17 ar  
    34    15    34 1   
    35    16    18 ar  
    36    16    35 1   
    37    17    36 1   
    38    18    37 1   
    39    19    22 1   
    40    19    26 1   
    41    20    23 1   
    42    20    27 1   
    43    21    30 2   
    44    22    28 1   
    45    22    32 2   
    46    23    29 1   
    47    23    33 2   
    48    24    25 1   
    49    24    28 1   
    50    24    47 1   
    51    24    48 1   
    52    25    29 1   
    53    25    49 1   
    54    25    50 1   
    55    26    53 1   
    56    27    55 1   
    57    28    51 1   
    58    29    52 1   
    59    31    54 2   
    60    53    57 1   
    61    53    58 1   
    62    53    59 1   
    63    55    60 1   
    64    55    61 1   
    65    55    62 1   
@<TRIPOS>SUBSTRUCTURE
     1 7Y0         1 TEMP              0 ****  ****    0 ROOT
