@<TRIPOS>MOLECULE
7Y0
   62    65     1     0     0
SMALL
abcg2


@<TRIPOS>ATOM
      1 C1           7.0460     1.3930    -2.4150 ca         1 7Y0      -0.104000
      2 C2          -6.8700    -1.4560    -2.3530 ca         1 7Y0      -0.104000
      3 C3           7.2250     0.6970    -1.2300 ca         1 7Y0      -0.071000
      4 C4          -7.0720    -0.7640    -1.1700 ca         1 7Y0      -0.071000
      5 C5           6.4000     0.7950    -3.4840 ca         1 7Y0      -0.089000
      6 C6          -6.2410    -0.8410    -3.4230 ca         1 7Y0      -0.089000
      7 C7           4.4790    -1.0870     0.8270 cc         1 7Y0      -0.089500
      8 C8          -4.3890     1.0820     0.8920 cc         1 7Y0      -0.089500
      9 C9           5.8180    -2.1540     2.2800 cd         1 7Y0      -0.096000
     10 C10         -5.7590     2.1060     2.3480 cd         1 7Y0      -0.096000
     11 C11          6.7450    -0.6000    -1.1000 ca         1 7Y0      -0.136600
     12 C12         -6.6330     0.5480    -1.0420 ca         1 7Y0      -0.136600
     13 C13          5.8100    -1.5130     1.0490 cc         1 7Y0      -0.266600
     14 C14         -5.7300     1.4770     1.1120 cc         1 7Y0      -0.266600
     15 C15          5.9320    -0.5050    -3.3660 ca         1 7Y0       0.110000
     16 C16         -5.8150     0.4730    -3.3070 ca         1 7Y0       0.110000
     17 C17          6.1050    -1.2040    -2.1750 ca         1 7Y0       0.136500
     18 C18         -6.0110     1.1690    -2.1180 ca         1 7Y0       0.136500
     19 C19          3.7390    -1.4750     1.9150 cd         1 7Y0      -0.258600
     20 C20         -3.6640     1.4750     1.9890 cd         1 7Y0      -0.258600
     21 C21          6.9670    -1.3250     0.1990 c          1 7Y0       0.633300
     22 C23          2.3130    -1.2300     2.2030 c          1 7Y0       0.640700
     23 C24         -2.2360     1.2520     2.2830 c          1 7Y0       0.640700
     24 C27          0.1460    -0.7230     1.1710 c3         1 7Y0       0.081500
     25 C28         -0.0590     0.7920     1.2410 c3         1 7Y0       0.081500
     26 N29          4.5830    -2.1220     2.7940 na         1 7Y0       0.074000
     27 N30         -4.5260     2.0960     2.8690 na         1 7Y0       0.074000
     28 N31          1.5440    -1.0780     1.1100 ns         1 7Y0      -0.502900
     29 N32         -1.4570     1.1450     1.1910 ns         1 7Y0      -0.502900
     30 O33          8.0900    -1.6740     0.5060 o          1 7Y0      -0.518100
     31 O34         -8.0090     1.5960     0.5550 o          1 7Y0      -0.518100
     32 O35          1.8770    -1.1660     3.3450 o          1 7Y0      -0.598600
     33 O36         -1.8080     1.1640     3.4270 o          1 7Y0      -0.598600
     34 CL1          5.1450    -1.2460    -4.7050 cl         1 7Y0      -0.171500
     35 CL2         -5.0480     1.2370    -4.6460 cl         1 7Y0      -0.171500
     36 CL3          5.5520    -2.8300    -2.0370 cl         1 7Y0      -0.164000
     37 CL4         -5.5060     2.8100    -1.9790 cl         1 7Y0      -0.164000
     38 H1           7.4140     2.4050    -2.5120 ha         1 7Y0       0.125000
     39 H3           7.7300     1.1660    -0.3960 ha         1 7Y0       0.131000
     40 H4          -7.5640    -1.2470    -0.3360 ha         1 7Y0       0.131000
     41 H5           6.2610     1.3330    -4.4120 ha         1 7Y0       0.133000
     42 H6          -6.0820    -1.3760    -4.3490 ha         1 7Y0       0.133000
     43 H7           4.1180    -0.5260    -0.0210 ha         1 7Y0       0.138000
     44 H8          -4.0100     0.5370     0.0410 ha         1 7Y0       0.138000
     45 H9           6.6290    -2.6350     2.8040 h4         1 7Y0       0.165500
     46 H10         -6.5820     2.5640     2.8720 h4         1 7Y0       0.165500
     47 H17         -0.3170    -1.2020     2.0340 h1         1 7Y0       0.063450
     48 H18         -0.3360    -1.1190     0.2780 h1         1 7Y0       0.063450
     49 H19          0.3860     1.1870     2.1540 h1         1 7Y0       0.063450
     50 H20          0.4390     1.2710     0.3980 h1         1 7Y0       0.063450
     51 H21          1.9480    -1.2220     0.2000 hn         1 7Y0       0.322000
     52 H22         -1.8630     1.3070     0.2840 hn         1 7Y0       0.322000
     53 C25          4.2320    -2.7230     4.0690 c3         1 7Y0       0.052900
     54 C22         -6.8780     1.2690     0.2540 c          1 7Y0       0.633300
     55 C26         -4.1930     2.6890     4.1520 c3         1 7Y0       0.052900
     56 H2          -7.2040    -2.4800    -2.4490 ha         1 7Y0       0.125000
     57 H11          3.3780    -3.3850     3.9580 h1         1 7Y0       0.065200
     58 H12          5.0820    -3.3040     4.4130 h1         1 7Y0       0.065200
     59 H13          3.9990    -1.9600     4.8070 h1         1 7Y0       0.065200
     60 H14         -3.3470     3.3630     4.0540 h1         1 7Y0       0.065200
     61 H15         -5.0530     3.2560     4.4950 h1         1 7Y0       0.065200
     62 H16         -3.9560     1.9220     4.8840 h1         1 7Y0       0.065200
@<TRIPOS>BOND
     1     1     3 ar  
     2     1     5 ar  
     3     1    38 1   
     4     2     4 ar  
     5     2     6 ar  
     6     2    56 1   
     7     3    11 ar  
     8     3    39 1   
     9     4    12 ar  
    10     4    40 1   
    11     5    15 ar  
    12     5    41 1   
    13     6    16 ar  
    14     6    42 1   
    15     7    13 1   
    16     7    19 2   
    17     7    43 1   
    18     8    14 1   
    19     8    20 2   
    20     8    44 1   
    21     9    13 2   
    22     9    26 1   
    23     9    45 1   
    24    10    14 2   
    25    10    27 1   
    26    10    46 1   
    27    11    17 ar  
    28    11    21 1   
    29    12    18 ar  
    30    12    54 1   
    31    13    21 1   
    32    14    54 1   
    33    15    17 ar  
    34    15    34 1   
    35    16    18 ar  
    36    16    35 1   
    37    17    36 1   
    38    18    37 1   
    39    19    22 1   
    40    19    26 1   
    41    20    23 1   
    42    20    27 1   
    43    21    30 2   
    44    22    28 1   
    45    22    32 2   
    46    23    29 1   
    47    23    33 2   
    48    24    25 1   
    49    24    28 1   
    50    24    47 1   
    51    24    48 1   
    52    25    29 1   
    53    25    49 1   
    54    25    50 1   
    55    26    53 1   
    56    27    55 1   
    57    28    51 1   
    58    29    52 1   
    59    31    54 2   
    60    53    57 1   
    61    53    58 1   
    62    53    59 1   
    63    55    60 1   
    64    55    61 1   
    65    55    62 1   
@<TRIPOS>SUBSTRUCTURE
     1 7Y0         1 TEMP              0 ****  ****    0 ROOT
