@<TRIPOS>MOLECULE
7Y1
   49    52     1     0     0
SMALL
bcc


@<TRIPOS>ATOM
      1 N3           1.5120     1.4170    -0.6740 na         1 7Y1      -0.095200
      2 C6           1.1560     2.7020    -1.0160 cc         1 7Y1      -0.160600
      3 C9           1.2820    -1.8150    -1.5370 cc         1 7Y1       0.348200
      4 C13          3.4030     2.2590     0.4120 cd         1 7Y1       0.226200
      5 C20         -3.0680     0.3990     1.5580 ca         1 7Y1      -0.128000
      6 C21         -4.3180     0.0510     1.0490 ca         1 7Y1      -0.059300
      7 C16         -3.2050    -1.3430    -0.5880 ca         1 7Y1      -0.097500
      8 C19         -4.3660    -0.8280    -0.0320 ca         1 7Y1      -0.128000
      9 C26         -5.9320     1.9690     0.9350 c3         1 7Y1      -0.087100
     10 C27          5.2060    -2.3940     2.1080 c3         1 7Y1      -0.091100
     11 C25          4.0280    -1.9500     1.2510 c3         1 7Y1      -0.083400
     12 C23          3.9970    -0.4440     1.1230 c3         1 7Y1       0.150400
     13 C10          2.6450     1.1780     0.0660 cc         1 7Y1       0.127500
     14 N12          3.0800     3.5350     0.0640 nd         1 7Y1      -0.613000
     15 C15          2.0060     3.7640    -0.6190 cc         1 7Y1       0.418200
     16 N7           0.0250     2.6840    -1.6790 nd         1 7Y1      -0.076000
     17 N4          -0.3560     1.4070    -1.7800 nd         1 7Y1      -0.346700
     18 C1           0.5150     0.6270    -1.1860 cc         1 7Y1       0.435400
     19 C2           0.3990    -0.8150    -1.0970 cc         1 7Y1      -0.294200
     20 N8           0.7640    -3.0110    -1.3700 nd         1 7Y1      -0.527800
     21 N11         -0.4400    -2.8140    -0.8320 na         1 7Y1       0.119400
     22 C22         -1.2580    -3.9580    -0.5030 c3         1 7Y1       0.039600
     23 C5          -0.7170    -1.5080    -0.6510 cd         1 7Y1       0.013700
     24 C14         -1.9590    -0.9940    -0.0710 ca         1 7Y1      -0.040000
     25 C17         -1.9050    -0.1140     1.0090 ca         1 7Y1      -0.097500
     26 H1           2.2630    -1.6950    -1.9720 h4         1 7Y1       0.042100
     27 H2           4.3050     2.1330     0.9930 h4         1 7Y1       0.036100
     28 H3          -3.0030     1.0760     2.4010 ha         1 7Y1       0.133500
     29 H4          -3.2730    -2.0100    -1.4380 ha         1 7Y1       0.135000
     30 H5          -5.3250    -1.1110    -0.4490 ha         1 7Y1       0.133500
     31 H6          -6.8380     2.3950     1.3660 hc         1 7Y1       0.038033
     32 H7          -5.1300     2.6990     1.0500 hc         1 7Y1       0.038033
     33 H8          -6.1020     1.8270    -0.1330 hc         1 7Y1       0.038033
     34 H9           5.2510    -3.4800     2.1660 hc         1 7Y1       0.039367
     35 H10          6.1540    -2.0460     1.6950 hc         1 7Y1       0.039367
     36 H11          5.1260    -2.0110     3.1260 hc         1 7Y1       0.039367
     37 H12          4.1010    -2.3970     0.2570 hc         1 7Y1       0.062200
     38 H13          3.0920    -2.3000     1.6920 hc         1 7Y1       0.062200
     39 H14          3.9290     0.0340     2.1050 h1         1 7Y1       0.046200
     40 H15          4.9010    -0.0790     0.6260 h1         1 7Y1       0.046200
     41 H16          1.7500     4.7810    -0.8890 h4         1 7Y1       0.053100
     42 H18         -0.6210    -4.7430    -0.1040 h1         1 7Y1       0.060033
     43 H19         -1.9910    -3.6860     0.2510 h1         1 7Y1       0.060033
     44 H20         -1.7790    -4.3330    -1.3830 h1         1 7Y1       0.060033
     45 H21         -0.9460     0.1580     1.4330 ha         1 7Y1       0.135000
     46 H22         -6.4020    -0.0550     1.5030 hc         1 7Y1       0.045700
     47 H23         -5.4510     0.8150     2.6880 hc         1 7Y1       0.045700
     48 O18          2.8470    -0.0890     0.3460 os         1 7Y1      -0.308900
     49 C24         -5.5750     0.6480     1.6160 c3         1 7Y1      -0.034100
@<TRIPOS>BOND
     1     1     2 1   
     2     1    13 1   
     3     1    18 1   
     4     2    15 1   
     5     2    16 2   
     6     3    19 1   
     7     3    20 2   
     8     3    26 1   
     9     4    13 2   
    10     4    14 1   
    11     4    27 1   
    12     5     6 ar  
    13     5    25 ar  
    14     5    28 1   
    15     6     8 ar  
    16     6    49 1   
    17     7     8 ar  
    18     7    24 ar  
    19     7    29 1   
    20     8    30 1   
    21     9    31 1   
    22     9    32 1   
    23     9    33 1   
    24     9    49 1   
    25    10    11 1   
    26    10    34 1   
    27    10    35 1   
    28    10    36 1   
    29    11    12 1   
    30    11    37 1   
    31    11    38 1   
    32    12    39 1   
    33    12    40 1   
    34    12    48 1   
    35    13    48 1   
    36    14    15 2   
    37    15    41 1   
    38    16    17 1   
    39    17    18 2   
    40    18    19 1   
    41    19    23 2   
    42    20    21 1   
    43    21    22 1   
    44    21    23 1   
    45    22    42 1   
    46    22    43 1   
    47    22    44 1   
    48    23    24 1   
    49    24    25 ar  
    50    25    45 1   
    51    46    49 1   
    52    47    49 1   
@<TRIPOS>SUBSTRUCTURE
     1 7Y1         1 TEMP              0 ****  ****    0 ROOT
