@<TRIPOS>MOLECULE
7Y1
   49    52     1     0     0
SMALL
No Charge or Current Charge


@<TRIPOS>ATOM
      1 N3           1.7550     1.5170    -0.9250 na         1 7Y1       0.006200
      2 C6           1.5150     2.8430    -0.9790 cc         1 7Y1      -0.146000
      3 C9           1.3190    -1.5010    -1.3330 cc         1 7Y1       0.282900
      4 C13          3.9910     2.0290    -0.2270 cd         1 7Y1       0.160900
      5 C20         -3.3330     0.5230     1.4880 ca         1 7Y1      -0.110000
      6 C21         -4.5480    -0.0460     1.0690 ca         1 7Y1      -0.059300
      7 C16         -3.3240    -1.4090    -0.5420 ca         1 7Y1      -0.079500
      8 C19         -4.5360    -1.0140     0.0510 ca         1 7Y1      -0.110000
      9 C26         -6.4850     1.5970     0.9940 c3         1 7Y1      -0.087100
     10 C27          5.1890    -2.4840     2.4030 c3         1 7Y1      -0.091100
     11 C25          3.9770    -1.9090     1.6450 c3         1 7Y1      -0.083400
     12 C23          4.2320    -0.5000     1.0760 c3         1 7Y1       0.173600
     13 C10          2.9020     1.1280    -0.2290 cc         1 7Y1       0.142100
     14 N12          3.8620     3.3700    -0.6570 nd         1 7Y1      -0.613000
     15 C15          2.6130     3.7410    -0.9300 cc         1 7Y1       0.352900
     16 N7           0.2170     3.0440    -1.0530 nd         1 7Y1      -0.076000
     17 N4          -0.3930     1.8020    -0.9400 nd         1 7Y1      -0.346700
     18 C1           0.5450     0.8610    -0.8450 cc         1 7Y1       0.435400
     19 C2           0.3550    -0.5730    -0.9140 cc         1 7Y1      -0.228900
     20 N8           0.8770    -2.7350    -1.4130 nd         1 7Y1      -0.527800
     21 N11         -0.4520    -2.6030    -1.0330 na         1 7Y1       0.140800
     22 C22         -1.2790    -3.8110    -0.8810 c3         1 7Y1       0.068900
     23 C5          -0.8200    -1.2680    -0.7520 cd         1 7Y1      -0.037000
     24 C14         -2.0990    -0.8360    -0.1360 ca         1 7Y1      -0.040000
     25 C17         -2.1220     0.1300     0.8930 ca         1 7Y1      -0.079500
     26 H1           2.3400    -1.3090    -1.6320 h4         1 7Y1       0.042100
     27 H2           4.9700     1.7740     0.1560 h4         1 7Y1       0.036100
     28 H3          -3.3240     1.2670     2.2810 ha         1 7Y1       0.115500
     29 H4          -3.3510    -2.1380    -1.3460 ha         1 7Y1       0.117000
     30 H5          -5.4680    -1.4590    -0.2900 ha         1 7Y1       0.115500
     31 H6          -7.4270     1.8840     1.4760 hc         1 7Y1       0.038033
     32 H7          -5.8050     2.4570     1.0280 hc         1 7Y1       0.038033
     33 H8          -6.6920     1.3620    -0.0570 hc         1 7Y1       0.038033
     34 H9           4.9600    -3.4850     2.7880 hc         1 7Y1       0.039367
     35 H10          6.0600    -2.5630     1.7410 hc         1 7Y1       0.039367
     36 H11          5.4560    -1.8430     3.2520 hc         1 7Y1       0.039367
     37 H12          3.7130    -2.5860     0.8230 hc         1 7Y1       0.062200
     38 H13          3.1140    -1.8730     2.3210 hc         1 7Y1       0.062200
     39 H14          4.4710     0.1900     1.8960 h1         1 7Y1       0.046200
     40 H15          5.0810    -0.5350     0.3810 h1         1 7Y1       0.046200
     41 H16          2.4860     4.8070    -1.0720 h4         1 7Y1       0.053100
     42 H18         -0.6350    -4.6930    -0.7810 h1         1 7Y1       0.060033
     43 H19         -1.9010    -3.7240     0.0180 h1         1 7Y1       0.060033
     44 H20         -1.9170    -3.9330    -1.7640 h1         1 7Y1       0.060033
     45 H21         -1.1950     0.5570     1.2660 ha         1 7Y1       0.117000
     46 H22         -6.5800    -0.4450     1.6970 hc         1 7Y1       0.045700
     47 H23         -5.7040     0.6360     2.7650 hc         1 7Y1       0.045700
     48 O18          3.0310    -0.0940     0.3980 os         1 7Y1      -0.332100
     49 C24         -5.8610     0.3840     1.7090 c3         1 7Y1      -0.034100
@<TRIPOS>BOND
     1     1     2 1   
     2     1    13 1   
     3     1    18 1   
     4     2    15 1   
     5     2    16 2   
     6     3    19 1   
     7     3    20 2   
     8     3    26 1   
     9     4    13 2   
    10     4    14 1   
    11     4    27 1   
    12     5     6 ar  
    13     5    25 ar  
    14     5    28 1   
    15     6     8 ar  
    16     6    49 1   
    17     7     8 ar  
    18     7    24 ar  
    19     7    29 1   
    20     8    30 1   
    21     9    31 1   
    22     9    32 1   
    23     9    33 1   
    24     9    49 1   
    25    10    11 1   
    26    10    34 1   
    27    10    35 1   
    28    10    36 1   
    29    11    12 1   
    30    11    37 1   
    31    11    38 1   
    32    12    39 1   
    33    12    40 1   
    34    12    48 1   
    35    13    48 1   
    36    14    15 2   
    37    15    41 1   
    38    16    17 1   
    39    17    18 2   
    40    18    19 1   
    41    19    23 2   
    42    20    21 1   
    43    21    22 1   
    44    21    23 1   
    45    22    42 1   
    46    22    43 1   
    47    22    44 1   
    48    23    24 1   
    49    24    25 ar  
    50    25    45 1   
    51    46    49 1   
    52    47    49 1   
@<TRIPOS>SUBSTRUCTURE
     1 7Y1         1 TEMP              0 ****  ****    0 ROOT
