@<TRIPOS>MOLECULE
7Y2
   76    77     1     0     0
SMALL
abcg2


@<TRIPOS>ATOM
      1 C1         -27.9480    17.5280    -9.4630 ca         1 7Y2      -0.098000
      2 C10        -24.9190    12.4420    -2.6200 c3         1 7Y2      -0.109600
      3 C11        -25.0150    13.9600    -2.4220 c3         1 7Y2       0.081400
      4 C12        -23.5650    14.5040    -2.3050 c          1 7Y2       0.591100
      5 C14        -21.8090    15.4120    -0.8410 c3         1 7Y2       0.037700
      6 C15        -20.7880    14.2700    -0.6670 c          1 7Y2       0.576100
      7 C17        -19.4700    12.6030    -1.9390 c3         1 7Y2       0.107700
      8 C19        -20.0710    11.5700    -2.8920 c3         1 7Y2      -0.070400
      9 C2         -28.7390    17.7460    -8.3390 ca         1 7Y2      -0.116000
     10 C20        -21.4260    11.0600    -2.4260 c5         1 7Y2      -0.149700
     11 C21        -21.4340    10.2330    -1.1330 c5         1 7Y2      -0.093400
     12 C22        -22.6320     9.2860    -1.3030 c5         1 7Y2       0.099000
     13 C23        -21.9470    18.4750    -1.0160 c3         1 7Y2      -0.088767
     14 C24        -22.1140    10.1490    -3.4380 c          1 7Y2       0.554000
     15 C27        -18.0850    13.0690    -2.3770 c3         1 7Y2       0.150600
     16 C3         -28.1650    17.7320    -7.0720 ca         1 7Y2      -0.083500
     17 C30        -25.9030    14.2690    -1.2120 c3         1 7Y2      -0.109600
     18 C34        -21.7960    16.3480     0.3620 c3         1 7Y2      -0.072400
     19 C35        -22.4770    17.7280     0.2150 c3         1 7Y2      -0.047000
     20 C36        -24.0050    17.6130     0.1220 c3         1 7Y2      -0.088767
     21 C37        -22.1220    18.5310     1.4760 c3         1 7Y2      -0.088767
     22 C4         -26.7990    17.5020    -6.9160 ca         1 7Y2      -0.103300
     23 C5         -26.0120    17.2890    -8.0480 ca         1 7Y2      -0.083500
     24 C6         -26.5820    17.3000    -9.3160 ca         1 7Y2      -0.116000
     25 C7         -26.1870    17.4610    -5.5490 c3         1 7Y2       0.232900
     26 C9         -25.6220    15.8350    -3.9080 c          1 7Y2       0.643100
     27 N10        -25.6080    14.5140    -3.6360 ns         1 7Y2      -0.490900
     28 N13        -23.1300    14.8340    -1.0800 ns         1 7Y2      -0.487900
     29 N16        -20.3460    13.7610    -1.8320 ns         1 7Y2      -0.506900
     30 N23        -22.7350     9.1690    -2.7540 ns         1 7Y2      -0.518900
     31 O26        -22.1300    10.2970    -4.6590 o          1 7Y2      -0.557000
     32 O29        -25.2390    16.7120    -3.1510 o          1 7Y2      -0.553000
     33 O33        -22.8460    14.5800    -3.3030 o          1 7Y2      -0.620100
     34 O38        -20.4370    13.8610     0.4380 o          1 7Y2      -0.612100
     35 O8         -26.1270    16.0680    -5.1400 os         1 7Y2      -0.460100
     36 H1         -28.3930    17.5410   -10.4500 ha         1 7Y2       0.113000
     37 H2         -24.4860    11.9760    -1.7370 hc         1 7Y2       0.054867
     38 H3         -25.9180    12.0310    -2.7730 hc         1 7Y2       0.054867
     39 H4         -24.3020    12.2040    -3.4870 hc         1 7Y2       0.054867
     40 H5         -21.5400    15.9580    -1.7440 h1         1 7Y2       0.086700
     41 H6         -19.3840    12.1800    -0.9380 h1         1 7Y2       0.087700
     42 H7         -19.3730    10.7360    -2.9850 hc         1 7Y2       0.071200
     43 H8         -20.1750    12.0180    -3.8840 hc         1 7Y2       0.071200
     44 H9         -29.8000    17.9290    -8.4490 ha         1 7Y2       0.115000
     45 H10        -22.0990    11.9140    -2.3110 hc         1 7Y2       0.071700
     46 H11        -21.5200    10.8430    -0.2360 hc         1 7Y2       0.065700
     47 H12        -20.5110     9.6520    -1.0650 hc         1 7Y2       0.065700
     48 H13        -23.5480     9.7160    -0.8860 h1         1 7Y2       0.042700
     49 H14        -22.4690     8.3110    -0.8450 h1         1 7Y2       0.042700
     50 H15        -20.8550    18.5280    -1.0040 hc         1 7Y2       0.037033
     51 H16        -22.2550    17.9930    -1.9450 hc         1 7Y2       0.037033
     52 H17        -22.3340    19.4960    -1.0320 hc         1 7Y2       0.037033
     53 H18        -18.1420    13.4920    -3.3870 h1         1 7Y2       0.030700
     54 H19        -17.7450    13.8540    -1.6930 h1         1 7Y2       0.030700
     55 H20        -28.7800    17.9030    -6.1960 ha         1 7Y2       0.115500
     56 H21        -25.5320    13.7750    -0.3130 hc         1 7Y2       0.054867
     57 H22        -25.9720    15.3400    -1.0320 hc         1 7Y2       0.054867
     58 H23        -26.9020    13.8830    -1.4090 hc         1 7Y2       0.054867
     59 H24        -22.2250    15.8260     1.2230 hc         1 7Y2       0.058700
     60 H25        -20.7460    16.5210     0.6060 hc         1 7Y2       0.058700
     61 H26        -24.4040    17.0330     0.9590 hc         1 7Y2       0.037033
     62 H27        -24.4570    18.6080     0.1590 hc         1 7Y2       0.037033
     63 H28        -24.3200    17.1390    -0.8050 hc         1 7Y2       0.037033
     64 H29        -22.4750    18.0200     2.3760 hc         1 7Y2       0.037033
     65 H30        -21.0410    18.6650     1.5650 hc         1 7Y2       0.037033
     66 H31        -22.5870    19.5190     1.4450 hc         1 7Y2       0.037033
     67 H32        -24.9480    17.1160    -7.9330 ha         1 7Y2       0.115500
     68 H33        -25.9620    17.1350   -10.1880 ha         1 7Y2       0.115000
     69 H34        -25.1740    17.8640    -5.5510 h1         1 7Y2       0.058200
     70 H35        -26.7870    18.0130    -4.8270 h1         1 7Y2       0.058200
     71 H36        -25.8490    13.8840    -4.3840 hn         1 7Y2       0.338500
     72 H37        -23.7450    14.7420    -0.2890 hn         1 7Y2       0.327500
     73 H38        -20.7850    14.1090    -2.6760 hn         1 7Y2       0.340500
     74 H39        -23.3620     8.5240    -3.2100 hn         1 7Y2       0.326500
     75 H40        -16.3280    12.2450    -2.6410 ho         1 7Y2       0.447000
     76 O28        -17.1980    11.9520    -2.3450 oh         1 7Y2      -0.668000
@<TRIPOS>BOND
     1     1     9 ar  
     2     1    24 ar  
     3     1    36 1   
     4     2     3 1   
     5     2    37 1   
     6     2    38 1   
     7     2    39 1   
     8     3     4 1   
     9     3    17 1   
    10     3    27 1   
    11     4    28 1   
    12     4    33 2   
    13     5     6 1   
    14     5    18 1   
    15     5    28 1   
    16     5    40 1   
    17     6    29 1   
    18     6    34 2   
    19     7     8 1   
    20     7    15 1   
    21     7    29 1   
    22     7    41 1   
    23     8    10 1   
    24     8    42 1   
    25     8    43 1   
    26     9    16 ar  
    27     9    44 1   
    28    10    11 1   
    29    10    14 1   
    30    10    45 1   
    31    11    12 1   
    32    11    46 1   
    33    11    47 1   
    34    12    30 1   
    35    12    48 1   
    36    12    49 1   
    37    13    19 1   
    38    13    50 1   
    39    13    51 1   
    40    13    52 1   
    41    14    30 1   
    42    14    31 2   
    43    15    53 1   
    44    15    54 1   
    45    15    76 1   
    46    16    22 ar  
    47    16    55 1   
    48    17    56 1   
    49    17    57 1   
    50    17    58 1   
    51    18    19 1   
    52    18    59 1   
    53    18    60 1   
    54    19    20 1   
    55    19    21 1   
    56    20    61 1   
    57    20    62 1   
    58    20    63 1   
    59    21    64 1   
    60    21    65 1   
    61    21    66 1   
    62    22    23 ar  
    63    22    25 1   
    64    23    24 ar  
    65    23    67 1   
    66    24    68 1   
    67    25    35 1   
    68    25    69 1   
    69    25    70 1   
    70    26    27 1   
    71    26    32 2   
    72    26    35 1   
    73    27    71 1   
    74    28    72 1   
    75    29    73 1   
    76    30    74 1   
    77    75    76 1   
@<TRIPOS>SUBSTRUCTURE
     1 7Y2         1 TEMP              0 ****  ****    0 ROOT
