@<TRIPOS>MOLECULE
7Y2
   76    77     1     0     0
SMALL
No Charge or Current Charge


@<TRIPOS>ATOM
      1 C1         -28.1250    16.8160    -9.7560 ca         1 7Y2      -0.098000
      2 C10        -25.0400    12.7510    -2.3230 c3         1 7Y2      -0.109600
      3 C11        -24.9640    14.2970    -2.2970 c3         1 7Y2       0.081400
      4 C12        -23.4460    14.7190    -2.1830 c          1 7Y2       0.591100
      5 C14        -21.6180    15.4900    -0.5880 c3         1 7Y2       0.037700
      6 C15        -20.5460    14.3540    -0.5910 c          1 7Y2       0.576100
      7 C17        -19.5550    12.5160    -2.0130 c3         1 7Y2       0.107700
      8 C19        -20.1260    11.5760    -3.1080 c3         1 7Y2      -0.070400
      9 C2         -28.9430    16.9990    -8.6280 ca         1 7Y2      -0.116000
     10 C20        -21.5530    11.0280    -2.8270 c5         1 7Y2      -0.149700
     11 C21        -21.7000    10.1980    -1.5220 c5         1 7Y2      -0.093400
     12 C22        -22.9940     9.3900    -1.8110 c5         1 7Y2       0.099000
     13 C23        -21.4530    18.6740    -0.3020 c3         1 7Y2      -0.088767
     14 C24        -22.0710    10.0640    -3.9020 c          1 7Y2       0.554000
     15 C27        -18.1330    13.0470    -2.3480 c3         1 7Y2       0.150600
     16 C3         -28.3640    17.1860    -7.3610 ca         1 7Y2      -0.083500
     17 C30        -25.8370    14.8210    -1.1210 c3         1 7Y2      -0.109600
     18 C34        -21.6300    16.3270     0.7290 c3         1 7Y2      -0.072400
     19 C35        -22.2470    17.7680     0.6780 c3         1 7Y2      -0.047000
     20 C36        -23.7390    17.7470     0.2550 c3         1 7Y2      -0.088767
     21 C37        -22.1530    18.3830     2.1000 c3         1 7Y2      -0.088767
     22 C4         -26.9620    17.1920    -7.2130 ca         1 7Y2      -0.103300
     23 C5         -26.1470    17.0050    -8.3480 ca         1 7Y2      -0.083500
     24 C6         -26.7260    16.8180    -9.6150 ca         1 7Y2      -0.116000
     25 C7         -26.3340    17.3950    -5.8410 c3         1 7Y2       0.232900
     26 C9         -25.6010    16.0760    -3.9880 c          1 7Y2       0.643100
     27 N10        -25.5120    14.7710    -3.5860 ns         1 7Y2      -0.490900
     28 N13        -22.9590    14.9380    -0.9080 ns         1 7Y2      -0.487900
     29 N16        -20.4830    13.6260    -1.7570 ns         1 7Y2      -0.506900
     30 N23        -22.8490     9.1510    -3.2450 ns         1 7Y2      -0.518900
     31 O26        -21.7240     9.9340    -5.0650 o          1 7Y2      -0.557000
     32 O29        -25.2460    17.0470    -3.3410 o          1 7Y2      -0.553000
     33 O33        -22.7100    14.8460    -3.1560 o          1 7Y2      -0.620100
     34 O38        -19.8260    14.0920     0.3640 o          1 7Y2      -0.612100
     35 O8         -26.1540    16.1080    -5.2300 os         1 7Y2      -0.460100
     36 H1         -28.5730    16.6710   -10.7370 ha         1 7Y2       0.113000
     37 H2         -24.5880    12.3250    -1.4180 hc         1 7Y2       0.054867
     38 H3         -26.0810    12.4090    -2.3750 hc         1 7Y2       0.054867
     39 H4         -24.5090    12.3470    -3.1930 hc         1 7Y2       0.054867
     40 H5         -21.3180    16.1500    -1.4110 h1         1 7Y2       0.086700
     41 H6         -19.4730    11.9330    -1.0850 h1         1 7Y2       0.087700
     42 H7         -19.4380    10.7310    -3.2400 hc         1 7Y2       0.071200
     43 H8         -20.1270    12.1160    -4.0630 hc         1 7Y2       0.071200
     44 H9         -30.0250    16.9960    -8.7360 ha         1 7Y2       0.115000
     45 H10        -22.2600    11.8610    -2.7820 hc         1 7Y2       0.071700
     46 H11        -21.7820    10.8170    -0.6210 hc         1 7Y2       0.065700
     47 H12        -20.8470     9.5220    -1.3820 hc         1 7Y2       0.065700
     48 H13        -23.8960     9.9790    -1.5960 h1         1 7Y2       0.042700
     49 H14        -23.0390     8.4610    -1.2270 h1         1 7Y2       0.042700
     50 H15        -20.3840    18.6790    -0.0560 hc         1 7Y2       0.037033
     51 H16        -21.5630    18.3410    -1.3400 hc         1 7Y2       0.037033
     52 H17        -21.8130    19.7100    -0.2530 hc         1 7Y2       0.037033
     53 H18        -18.1760    13.6210    -3.2840 h1         1 7Y2       0.030700
     54 H19        -17.8130    13.7360    -1.5540 h1         1 7Y2       0.030700
     55 H20        -29.0050    17.3250    -6.4920 ha         1 7Y2       0.115500
     56 H21        -25.5450    14.3640    -0.1670 hc         1 7Y2       0.054867
     57 H22        -25.7590    15.9090    -1.0150 hc         1 7Y2       0.054867
     58 H23        -26.8940    14.5790    -1.2890 hc         1 7Y2       0.054867
     59 H24        -22.1290    15.7400     1.5110 hc         1 7Y2       0.058700
     60 H25        -20.5920    16.4420     1.0660 hc         1 7Y2       0.058700
     61 H26        -24.3140    17.0480     0.8750 hc         1 7Y2       0.037033
     62 H27        -24.1900    18.7410     0.3640 hc         1 7Y2       0.037033
     63 H28        -23.8500    17.4560    -0.7950 hc         1 7Y2       0.037033
     64 H29        -22.7130    17.7810     2.8260 hc         1 7Y2       0.037033
     65 H30        -21.1100    18.4350     2.4380 hc         1 7Y2       0.037033
     66 H31        -22.5630    19.4000     2.1190 hc         1 7Y2       0.037033
     67 H32        -25.0630    17.0030    -8.2470 ha         1 7Y2       0.115500
     68 H33        -26.0920    16.6750   -10.4870 ha         1 7Y2       0.115000
     69 H34        -25.3720    17.9120    -5.9510 h1         1 7Y2       0.058200
     70 H35        -26.9890    18.0290    -5.2280 h1         1 7Y2       0.058200
     71 H36        -25.8410    14.0910    -4.2580 hn         1 7Y2       0.338500
     72 H37        -23.6080    14.7940    -0.1440 hn         1 7Y2       0.327500
     73 H38        -21.1270    13.9090    -2.4930 hn         1 7Y2       0.340500
     74 H39        -23.2270     8.3650    -3.7620 hn         1 7Y2       0.326500
     75 H40        -16.3140    12.3750    -2.6670 ho         1 7Y2       0.447000
     76 O28        -17.1880    11.9710    -2.4670 oh         1 7Y2      -0.668000
@<TRIPOS>BOND
     1     1     9 ar  
     2     1    24 ar  
     3     1    36 1   
     4     2     3 1   
     5     2    37 1   
     6     2    38 1   
     7     2    39 1   
     8     3     4 1   
     9     3    17 1   
    10     3    27 1   
    11     4    28 1   
    12     4    33 2   
    13     5     6 1   
    14     5    18 1   
    15     5    28 1   
    16     5    40 1   
    17     6    29 1   
    18     6    34 2   
    19     7     8 1   
    20     7    15 1   
    21     7    29 1   
    22     7    41 1   
    23     8    10 1   
    24     8    42 1   
    25     8    43 1   
    26     9    16 ar  
    27     9    44 1   
    28    10    11 1   
    29    10    14 1   
    30    10    45 1   
    31    11    12 1   
    32    11    46 1   
    33    11    47 1   
    34    12    30 1   
    35    12    48 1   
    36    12    49 1   
    37    13    19 1   
    38    13    50 1   
    39    13    51 1   
    40    13    52 1   
    41    14    30 1   
    42    14    31 2   
    43    15    53 1   
    44    15    54 1   
    45    15    76 1   
    46    16    22 ar  
    47    16    55 1   
    48    17    56 1   
    49    17    57 1   
    50    17    58 1   
    51    18    19 1   
    52    18    59 1   
    53    18    60 1   
    54    19    20 1   
    55    19    21 1   
    56    20    61 1   
    57    20    62 1   
    58    20    63 1   
    59    21    64 1   
    60    21    65 1   
    61    21    66 1   
    62    22    23 ar  
    63    22    25 1   
    64    23    24 ar  
    65    23    67 1   
    66    24    68 1   
    67    25    35 1   
    68    25    69 1   
    69    25    70 1   
    70    26    27 1   
    71    26    32 2   
    72    26    35 1   
    73    27    71 1   
    74    28    72 1   
    75    29    73 1   
    76    30    74 1   
    77    75    76 1   
@<TRIPOS>SUBSTRUCTURE
     1 7Y2         1 TEMP              0 ****  ****    0 ROOT
