@<TRIPOS>MOLECULE
7Y3
   19    20     1     0     0
SMALL
abcg2


@<TRIPOS>ATOM
      1 BR1         -3.5370    -0.6270    -0.1180 br         1 7Y3      -0.016100
      2 S2          -0.6930     0.2240    -0.9470 ss         1 7Y3       0.397000
      3 C3          -1.8450    -0.0030     0.2980 cc         1 7Y3      -0.149900
      4 C4          -1.3800     0.3360     1.5370 cd         1 7Y3      -0.125000
      5 C5          -0.0440     0.7900     1.4860 cd         1 7Y3       0.036000
      6 C6           0.4450     0.7830     0.2120 cc         1 7Y3      -0.490500
      7 S7           2.0460     1.2170    -0.2830 sy         1 7Y3       1.245700
      8 O8           2.0250     1.4820    -1.7040 o          1 7Y3      -0.510500
      9 O9           2.6050     2.1310     0.6790 o          1 7Y3      -0.510500
     10 N10          2.9110    -0.2350    -0.1320 na         1 7Y3       0.001600
     11 C12          3.2170    -1.1290    -1.1150 cc         1 7Y3      -0.128000
     12 C13          3.7610    -2.2040    -0.4750 cd         1 7Y3      -0.210000
     13 C14          3.7190    -1.8700     0.8990 cd         1 7Y3       0.270900
     14 N11          3.1960    -0.6840     1.0960 nc         1 7Y3      -0.492800
     15 H1          -1.9640     0.2680     2.4420 ha         1 7Y3       0.154000
     16 H2           0.5180     1.1070     2.3520 ha         1 7Y3       0.162000
     17 H3           3.0450    -0.9280    -2.1590 h4         1 7Y3       0.178000
     18 H4           4.1430    -3.1040    -0.9250 ha         1 7Y3       0.149000
     19 H5           4.0560    -2.4590     1.7380 h4         1 7Y3       0.040100
@<TRIPOS>BOND
     1     1     3 1   
     2     2     3 1   
     3     2     6 1   
     4     3     4 2   
     5     4     5 1   
     6     4    15 1   
     7     5     6 2   
     8     5    16 1   
     9     6     7 1   
    10     7     8 2   
    11     7     9 2   
    12     7    10 1   
    13    10    11 1   
    14    10    14 1   
    15    11    12 2   
    16    11    17 1   
    17    12    13 1   
    18    12    18 1   
    19    13    14 2   
    20    13    19 1   
@<TRIPOS>SUBSTRUCTURE
     1 7Y3         1 TEMP              0 ****  ****    0 ROOT
