@<TRIPOS>MOLECULE
7Y3
   19    20     1     0     0
SMALL
No Charge or Current Charge


@<TRIPOS>ATOM
      1 Br1         -3.6760    -0.6380    -0.1810 br         1 7Y3      -0.016100
      2 S2          -0.6860     0.1480    -0.9650 ss         1 7Y3       0.397000
      3 C3          -1.9630     0.0260     0.2430 cc         1 7Y3      -0.149900
      4 C4          -1.5430     0.4580     1.4750 cd         1 7Y3      -0.125000
      5 C5          -0.1920     0.8990     1.4790 cd         1 7Y3       0.036000
      6 C6           0.4010     0.8020     0.2420 cc         1 7Y3      -0.490500
      7 S7           2.0790     1.2230    -0.1850 sy         1 7Y3       1.245700
      8 O8           2.0740     1.5840    -1.6110 o          1 7Y3      -0.510500
      9 O9           2.5770     2.1140     0.8760 o          1 7Y3      -0.510500
     10 N10          2.9580    -0.3240    -0.0480 na         1 7Y3       0.001600
     11 C12          3.1290    -1.2370    -1.0940 cc         1 7Y3      -0.128000
     12 C13          3.8350    -2.2570    -0.5220 cd         1 7Y3      -0.210000
     13 C14          4.0570    -1.9260     0.8290 cd         1 7Y3       0.270900
     14 N11          3.5360    -0.7580     1.1530 nc         1 7Y3      -0.492800
     15 H1          -2.1750     0.4610     2.3580 ha         1 7Y3       0.154000
     16 H2           0.3120     1.2720     2.3690 ha         1 7Y3       0.162000
     17 H3           2.7530    -1.0840    -2.1010 h4         1 7Y3       0.178000
     18 H4           4.1670    -3.1640    -1.0150 ha         1 7Y3       0.149000
     19 H5           4.5810    -2.5040     1.5800 h4         1 7Y3       0.040100
@<TRIPOS>BOND
     1     1     3 1   
     2     2     3 1   
     3     2     6 1   
     4     3     4 2   
     5     4     5 1   
     6     4    15 1   
     7     5     6 2   
     8     5    16 1   
     9     6     7 1   
    10     7     8 2   
    11     7     9 2   
    12     7    10 1   
    13    10    11 1   
    14    10    14 1   
    15    11    12 2   
    16    11    17 1   
    17    12    13 1   
    18    12    18 1   
    19    13    14 2   
    20    13    19 1   
@<TRIPOS>SUBSTRUCTURE
     1 7Y3         1 TEMP              0 ****  ****    0 ROOT
