@<TRIPOS>MOLECULE
7Y4
   62    66     1     0     0
SMALL
No Charge or Current Charge


@<TRIPOS>ATOM
      1 C4           2.3850     0.6640    -1.3270 ca         1 7Y4      -0.112500
      2 C7          -0.0690     1.8610     1.7780 ca         1 7Y4      -0.363900
      3 C6          -0.8640     3.9520     0.3440 ca         1 7Y4       0.193900
      4 C9           0.7600    -0.4320     2.7410 cc         1 7Y4      -0.217900
      5 C13          0.0750     3.1370     2.2490 ca         1 7Y4       0.148500
      6 C20          1.6070    -3.7790     1.6200 c3         1 7Y4       0.069900
      7 C8           1.3890    -0.9050     0.2730 ca         1 7Y4      -0.040000
      8 C18         -2.3350    -1.2850    -1.1040 c5         1 7Y4       0.157500
      9 C16         -2.1760    -0.3910     1.1110 c5         1 7Y4       0.222800
     10 C19          3.9490    -0.3690    -4.1690 c3         1 7Y4      -0.087100
     11 C1           1.1730    -1.8040    -0.7960 ca         1 7Y4      -0.083500
     12 C2           2.0170     0.3270    -0.0130 ca         1 7Y4      -0.083500
     13 C3           1.5440    -1.4690    -2.1090 ca         1 7Y4      -0.112500
     14 C5           0.8740    -1.2170     3.8920 cc         1 7Y4       0.261900
     15 C10          2.1450    -0.2300    -2.3840 ca         1 7Y4      -0.063300
     16 C11          0.4830     0.9830     2.7980 cc         1 7Y4       0.475500
     17 C12          1.0030    -1.2570     1.6640 cd         1 7Y4      -0.068000
     18 C14         -0.7910     1.6610     0.5890 ca         1 7Y4       0.458900
     19 C15         -3.2170    -1.0180     0.1460 c5         1 7Y4      -0.099400
     20 C17         -1.6350     0.1070    -1.2310 c5         1 7Y4       0.224800
     21 C24          2.5390     0.1350    -3.8090 c3         1 7Y4      -0.034100
     22 N25          1.1210    -2.4840     3.6560 nd         1 7Y4      -0.525800
     23 N26         -0.3010     4.2170     1.5420 nb         1 7Y4      -0.237000
     24 N27         -1.1580     2.7300    -0.1510 nb         1 7Y4      -0.319000
     25 N28          0.7600     1.6770     3.9120 nd         1 7Y4      -0.516100
     26 N29          1.2040    -2.5210     2.2700 na         1 7Y4       0.137800
     27 N30          0.5590     2.9920     3.5290 na         1 7Y4      -0.017100
     28 N31         -1.3480     0.4360     0.1940 nh         1 7Y4      -0.774300
     29 H1           2.8660     1.6200    -1.5190 ha         1 7Y4       0.115000
     30 H2          -1.1650     4.8090    -0.2560 h5         1 7Y4       0.043100
     31 H3           2.4040    -3.5830     0.8930 h1         1 7Y4       0.059033
     32 H4           1.9810    -4.4850     2.3700 h1         1 7Y4       0.059033
     33 H5           0.7420    -4.2240     1.1140 h1         1 7Y4       0.059033
     34 H6           1.2080     3.7740     5.3850 h1         1 7Y4       0.058700
     35 H7           1.4080     4.8690     3.9850 h1         1 7Y4       0.058700
     36 H8          -0.2190     4.5840     4.6720 h1         1 7Y4       0.058700
     37 H9          -1.6170    -2.0970    -0.9320 h1         1 7Y4       0.030700
     38 H10         -2.6630     0.2080     1.8940 h1         1 7Y4       0.061200
     39 H11         -1.5840    -1.1740     1.6000 h1         1 7Y4       0.061200
     40 H12          4.0020    -1.4610    -4.0840 hc         1 7Y4       0.037033
     41 H13          4.2040    -0.0910    -5.1980 hc         1 7Y4       0.037033
     42 H14          4.6980     0.0670    -3.4970 hc         1 7Y4       0.037033
     43 H15          0.6730    -2.7520    -0.6280 ha         1 7Y4       0.121500
     44 H16          2.2490     1.0240     0.7850 ha         1 7Y4       0.121500
     45 H17          1.3510    -2.1730    -2.9160 ha         1 7Y4       0.115000
     46 H18          0.7620    -0.8970     4.9200 h4         1 7Y4       0.043100
     47 H19         -4.0300    -0.3140    -0.0700 hc         1 7Y4       0.064200
     48 H20         -3.6600    -1.9260     0.5660 hc         1 7Y4       0.064200
     49 H21         -0.7240     0.0550    -1.8410 h1         1 7Y4       0.067700
     50 H22         -2.3130     0.8450    -1.6830 h1         1 7Y4       0.067700
     51 H23         -1.7590    -2.3820    -3.6090 h1         1 7Y4       0.033033
     52 H24         -3.1840    -1.7020    -4.4290 h1         1 7Y4       0.033033
     53 H25         -1.9500    -0.6200    -3.7690 h1         1 7Y4       0.033033
     54 H26         -4.7840    -2.6220    -1.3210 h1         1 7Y4       0.033033
     55 H27         -4.7300    -2.8260    -3.0760 h1         1 7Y4       0.033033
     56 H28         -3.5170    -3.6340    -2.0560 h1         1 7Y4       0.033033
     57 H29          2.5040     1.2230    -3.9460 hc         1 7Y4       0.046200
     58 H30          1.8180    -0.2850    -4.5200 hc         1 7Y4       0.046200
     59 N32         -3.2180    -1.5320    -2.2990 n3         1 7Y4      -0.705600
     60 C21          0.7510     4.1240     4.4510 c3         1 7Y4       0.083900
     61 C22         -2.4880    -1.5600    -3.5920 c3         1 7Y4       0.147600
     62 C23         -4.1060    -2.7150    -2.1790 c3         1 7Y4       0.147600
@<TRIPOS>BOND
     1     1    12 ar  
     2     1    15 ar  
     3     1    29 1   
     4     2     5 ar  
     5     2    16 1   
     6     2    18 ar  
     7     3    23 ar  
     8     3    24 ar  
     9     3    30 1   
    10     4    14 1   
    11     4    16 1   
    12     4    17 2   
    13     5    23 ar  
    14     5    27 1   
    15     6    26 1   
    16     6    31 1   
    17     6    32 1   
    18     6    33 1   
    19     7    11 ar  
    20     7    12 ar  
    21     7    17 1   
    22     8    19 1   
    23     8    20 1   
    24     8    37 1   
    25     8    59 1   
    26     9    19 1   
    27     9    28 1   
    28     9    38 1   
    29     9    39 1   
    30    10    21 1   
    31    10    40 1   
    32    10    41 1   
    33    10    42 1   
    34    11    13 ar  
    35    11    43 1   
    36    12    44 1   
    37    13    15 ar  
    38    13    45 1   
    39    14    22 2   
    40    14    46 1   
    41    15    21 1   
    42    16    25 2   
    43    17    26 1   
    44    18    24 ar  
    45    18    28 1   
    46    19    47 1   
    47    19    48 1   
    48    20    28 1   
    49    20    49 1   
    50    20    50 1   
    51    21    57 1   
    52    21    58 1   
    53    22    26 1   
    54    25    27 1   
    55    27    60 1   
    56    34    60 1   
    57    35    60 1   
    58    36    60 1   
    59    51    61 1   
    60    52    61 1   
    61    53    61 1   
    62    54    62 1   
    63    55    62 1   
    64    56    62 1   
    65    59    61 1   
    66    59    62 1   
@<TRIPOS>SUBSTRUCTURE
     1 7Y4         1 TEMP              0 ****  ****    0 ROOT
