@<TRIPOS>MOLECULE
7Y4
   62    66     1     0     0
SMALL
abcg2


@<TRIPOS>ATOM
      1 C4           2.2180    -0.3020    -1.9940 ca         1 7Y4      -0.112500
      2 C7          -0.2130     1.5330     1.4090 ca         1 7Y4      -0.363900
      3 C6          -0.9680     3.8030     0.2120 ca         1 7Y4       0.193900
      4 C9           0.6500    -0.8040     2.2760 cc         1 7Y4      -0.217900
      5 C13          0.2740     2.8100     1.7280 ca         1 7Y4       0.148500
      6 C20          1.6370    -4.1410     1.3330 c3         1 7Y4       0.069900
      7 C8           2.0670    -1.3380     0.1830 ca         1 7Y4      -0.040000
      8 C18         -3.5480    -0.8660    -1.0600 c5         1 7Y4       0.157500
      9 C16         -2.1000    -0.7770     0.8320 c5         1 7Y4       0.222800
     10 C19          5.0430     1.1090    -3.0860 c3         1 7Y4      -0.087100
     11 C1           3.4090    -1.7030     0.0730 ca         1 7Y4      -0.083500
     12 C2           1.4800    -0.6360    -0.8690 ca         1 7Y4      -0.083500
     13 C3           4.1390    -1.3700    -1.0570 ca         1 7Y4      -0.112500
     14 C5           0.1600    -1.6560     3.2770 cc         1 7Y4       0.261900
     15 C10          3.5590    -0.6600    -2.1070 ca         1 7Y4      -0.063300
     16 C11          0.5800     0.6550     2.2110 cc         1 7Y4       0.475500
     17 C12          1.3010    -1.6510     1.3930 cd         1 7Y4      -0.068000
     18 C14         -1.2470     1.5230     0.4290 ca         1 7Y4       0.458900
     19 C15         -3.4540    -1.3120     0.3970 c5         1 7Y4      -0.099400
     20 C17         -2.9570     0.5440    -0.9980 c5         1 7Y4       0.224800
     21 C24          4.3740    -0.2490    -3.3000 c3         1 7Y4      -0.034100
     22 N25          0.4610    -2.9140     3.0270 nd         1 7Y4      -0.525800
     23 N26         -0.0840     3.9700     1.1700 nb         1 7Y4      -0.237000
     24 N27         -1.5510     2.6750    -0.1800 nb         1 7Y4      -0.319000
     25 N28          1.4090     1.3550     2.9510 nd         1 7Y4      -0.516100
     26 N29          1.1470    -2.8980     1.8870 na         1 7Y4       0.137800
     27 N30          1.2150     2.6480     2.6720 na         1 7Y4      -0.017100
     28 N31         -1.9560     0.4510     0.0580 nh         1 7Y4      -0.774300
     29 H1           1.7380     0.2400    -2.8000 ha         1 7Y4       0.115000
     30 H2          -1.2740     4.6960    -0.3240 h5         1 7Y4       0.043100
     31 H3           2.6140    -4.3960     1.7400 h1         1 7Y4       0.059033
     32 H4           0.9320    -4.9310     1.5780 h1         1 7Y4       0.059033
     33 H5           1.7130    -4.0580     0.2530 h1         1 7Y4       0.059033
     34 H6           1.8690     3.6240     4.3940 h1         1 7Y4       0.058700
     35 H7           3.0620     3.5340     3.0820 h1         1 7Y4       0.058700
     36 H8           1.6830     4.6360     2.9540 h1         1 7Y4       0.058700
     37 H9          -2.8760    -1.5020    -1.6660 h1         1 7Y4       0.030700
     38 H10         -2.0530    -0.5720     1.9010 h1         1 7Y4       0.061200
     39 H11         -1.3110    -1.4930     0.5940 h1         1 7Y4       0.061200
     40 H12          5.7050     1.0880    -2.2200 hc         1 7Y4       0.037033
     41 H13          5.6370     1.3900    -3.9560 hc         1 7Y4       0.037033
     42 H14          4.3000     1.8910    -2.9200 hc         1 7Y4       0.037033
     43 H15          3.8940    -2.2360     0.8800 ha         1 7Y4       0.121500
     44 H16          0.4340    -0.3620    -0.8190 ha         1 7Y4       0.121500
     45 H17          5.1800    -1.6620    -1.1210 ha         1 7Y4       0.115000
     46 H18         -0.4080    -1.3880     4.1550 h4         1 7Y4       0.043100
     47 H19         -4.2580    -0.8450     0.9720 hc         1 7Y4       0.064200
     48 H20         -3.5140    -2.3910     0.5350 hc         1 7Y4       0.064200
     49 H21         -2.4980     0.8660    -1.9320 h1         1 7Y4       0.067700
     50 H22         -3.7390     1.2660    -0.7410 h1         1 7Y4       0.067700
     51 H23         -4.3140    -0.9450    -3.6530 h1         1 7Y4       0.033033
     52 H24         -5.9610    -0.3910    -3.3200 h1         1 7Y4       0.033033
     53 H25         -4.6040     0.6710    -2.9900 h1         1 7Y4       0.033033
     54 H26         -5.5660    -2.5460    -0.5070 h1         1 7Y4       0.033033
     55 H27         -6.4890    -2.1700    -1.9540 h1         1 7Y4       0.033033
     56 H28         -4.9100    -2.9560    -2.1000 h1         1 7Y4       0.033033
     57 H29          3.7360    -0.2050    -4.1850 hc         1 7Y4       0.046200
     58 H30          5.1380    -1.0020    -3.5000 hc         1 7Y4       0.046200
     59 N32         -4.8940    -0.8780    -1.5950 n3         1 7Y4      -0.705600
     60 C21          2.0070     3.6650     3.3160 c3         1 7Y4       0.083900
     61 C22         -4.9350    -0.3670    -2.9510 c3         1 7Y4       0.147600
     62 C23         -5.4820    -2.2010    -1.5380 c3         1 7Y4       0.147600
@<TRIPOS>BOND
     1     1    12 ar  
     2     1    15 ar  
     3     1    29 1   
     4     2     5 ar  
     5     2    16 1   
     6     2    18 ar  
     7     3    23 ar  
     8     3    24 ar  
     9     3    30 1   
    10     4    14 1   
    11     4    16 1   
    12     4    17 2   
    13     5    23 ar  
    14     5    27 1   
    15     6    26 1   
    16     6    31 1   
    17     6    32 1   
    18     6    33 1   
    19     7    11 ar  
    20     7    12 ar  
    21     7    17 1   
    22     8    19 1   
    23     8    20 1   
    24     8    37 1   
    25     8    59 1   
    26     9    19 1   
    27     9    28 1   
    28     9    38 1   
    29     9    39 1   
    30    10    21 1   
    31    10    40 1   
    32    10    41 1   
    33    10    42 1   
    34    11    13 ar  
    35    11    43 1   
    36    12    44 1   
    37    13    15 ar  
    38    13    45 1   
    39    14    22 2   
    40    14    46 1   
    41    15    21 1   
    42    16    25 2   
    43    17    26 1   
    44    18    24 ar  
    45    18    28 1   
    46    19    47 1   
    47    19    48 1   
    48    20    28 1   
    49    20    49 1   
    50    20    50 1   
    51    21    57 1   
    52    21    58 1   
    53    22    26 1   
    54    25    27 1   
    55    27    60 1   
    56    34    60 1   
    57    35    60 1   
    58    36    60 1   
    59    51    61 1   
    60    52    61 1   
    61    53    61 1   
    62    54    62 1   
    63    55    62 1   
    64    56    62 1   
    65    59    61 1   
    66    59    62 1   
@<TRIPOS>SUBSTRUCTURE
     1 7Y4         1 TEMP              0 ****  ****    0 ROOT
