@<TRIPOS>MOLECULE
7Y5
   80    83     1     0     0
SMALL
No Charge or Current Charge


@<TRIPOS>ATOM
      1 N1         -25.3920    23.4190    31.6490 n          1 7Y5      -0.395800
      2 N3         -24.7090    27.0810    26.7490 ns         1 7Y5      -0.426900
      3 C4         -23.5080    21.4890    34.1110 c3         1 7Y5       0.182600
      4 C5         -24.8540    23.1140    32.9140 c          1 7Y5       0.641100
      5 C6         -25.0590    22.5870    30.4450 c6         1 7Y5       0.082500
      6 C7         -25.9350    22.8500    29.1960 c6         1 7Y5       0.075500
      7 C8         -25.9180    24.7970    31.3910 c6         1 7Y5       0.082500
      8 C10        -25.4010    24.9850    27.9270 c          1 7Y5       0.595100
      9 C13        -23.5000    27.6510    27.0980 c          1 7Y5       0.532600
     10 C15        -22.3330    28.4870    23.6670 cp         1 7Y5       0.215500
     11 C17        -22.0940    28.7640    21.1340 ca         1 7Y5      -0.065500
     12 C20        -24.5740    27.5360    20.6780 ca         1 7Y5      -0.136500
     13 C21        -24.1000    27.6950    21.9920 ca         1 7Y5      -0.065500
     14 C22        -20.6610    29.2310    25.0820 ca         1 7Y5       0.378900
     15 C24        -17.6600    31.1900    26.0830 c5         1 7Y5      -0.130400
     16 C26        -17.1740    30.5380    24.7630 c5         1 7Y5       0.141300
     17 C28        -21.3980    28.7810    26.1860 ca         1 7Y5      -0.228000
     18 C1         -19.8980    22.7840    33.0890 c3         1 7Y5      -0.088100
     19 C3         -22.1650    22.2570    34.1920 c3         1 7Y5      -0.091400
     20 O1         -24.2270    21.8950    32.9300 os         1 7Y5      -0.473100
     21 C9         -26.7620    24.9550    30.1030 c6         1 7Y5       0.075500
     22 N2         -26.1030    24.2990    28.9510 n          1 7Y5      -0.410800
     23 C11        -25.6800    26.5150    27.7030 c3         1 7Y5       0.075700
     24 C12        -27.1270    26.8120    27.2200 c3         1 7Y5      -0.390400
     25 P1         -27.7050    28.5170    27.5840 p5         1 7Y5       1.287500
     26 O2         -29.1580    28.5860    27.2620 o          1 7Y5      -0.924833
     27 O3         -26.9440    29.4790    26.7400 o          1 7Y5      -0.924833
     28 O4         -27.4830    28.7910    29.0310 o          1 7Y5      -0.924833
     29 C14        -22.6470    28.1700    25.9480 ca         1 7Y5       0.134500
     30 N4         -23.1000    28.0310    24.6800 nb         1 7Y5      -0.192000
     31 C16        -22.8450    28.3150    22.2580 cp         1 7Y5      -0.124500
     32 C18        -22.5720    28.6030    19.8220 ca         1 7Y5      -0.136500
     33 C19        -23.8110    27.9890    19.5920 ca         1 7Y5      -0.117000
     34 N5         -21.1320    29.0790    23.8320 nb         1 7Y5      -0.291000
     35 N6         -19.4010    29.8520    25.2160 nh         1 7Y5      -0.807300
     36 C23        -18.7700    30.1990    26.5180 c5         1 7Y5       0.236800
     37 C25        -18.5270    30.2190    24.0590 c5         1 7Y5       0.245800
     38 O5         -16.4520    31.5200    23.9740 os         1 7Y5      -0.444000
     39 C27        -15.1730    31.9530    24.4710 c3         1 7Y5       0.151900
     40 O6         -23.1420    27.7180    28.2700 o          1 7Y5      -0.609100
     41 O7         -24.6240    24.3640    27.2040 o          1 7Y5      -0.666100
     42 O8         -24.9490    23.8560    33.8820 o          1 7Y5      -0.561000
     43 H1         -24.9310    27.0550    25.7620 hn         1 7Y5       0.330500
     44 H2         -24.1010    21.6640    35.0200 h1         1 7Y5       0.052700
     45 H3         -23.2920    20.4130    34.0630 h1         1 7Y5       0.052700
     46 H4         -25.1400    21.5200    30.6940 h1         1 7Y5       0.055950
     47 H5         -24.0090    22.7790    30.1810 h1         1 7Y5       0.055950
     48 H6         -26.9260    22.4010    29.3560 h1         1 7Y5       0.077200
     49 H7         -25.4970    22.3450    28.3230 h1         1 7Y5       0.077200
     50 H8         -25.0590    25.4800    31.3280 h1         1 7Y5       0.055950
     51 H9         -26.5250    25.1240    32.2470 h1         1 7Y5       0.055950
     52 H12        -24.7210    27.3310    22.8080 ha         1 7Y5       0.140500
     53 H13        -16.8710    31.2730    26.8370 hc         1 7Y5       0.055700
     54 H14        -18.0710    32.1920    25.9120 hc         1 7Y5       0.055700
     55 H15        -16.5650    29.6380    24.9280 h1         1 7Y5       0.033700
     56 H16        -21.0240    28.8900    27.1980 ha         1 7Y5       0.153000
     57 H17        -19.2830    22.6070    32.1990 hc         1 7Y5       0.025700
     58 H18        -20.0540    23.8640    33.1890 hc         1 7Y5       0.025700
     59 H19        -19.3420    22.4300    33.9660 hc         1 7Y5       0.025700
     60 H20        -21.7550    22.3980    32.0580 hc         1 7Y5       0.046200
     61 H21        -21.0560    20.9750    32.8310 hc         1 7Y5       0.046200
     62 H22        -21.6350    21.9240    35.0930 hc         1 7Y5       0.041700
     63 H23        -22.3570    23.3280    34.3260 hc         1 7Y5       0.041700
     64 H24        -26.9580    26.0190    29.9240 h1         1 7Y5       0.077200
     65 H25        -27.7420    24.4810    30.2640 h1         1 7Y5       0.077200
     66 H26        -25.5250    26.9950    28.6770 h1         1 7Y5       0.115700
     67 H27        -27.8340    26.1460    27.7250 hc         1 7Y5       0.022200
     68 H28        -27.2220    26.6180    26.1460 hc         1 7Y5       0.022200
     69 H31        -21.9770    28.9560    18.9820 ha         1 7Y5       0.101000
     70 H32        -24.1790    27.8650    18.5770 ha         1 7Y5       0.092000
     71 H33        -19.4730    30.6750    27.2170 h1         1 7Y5       0.056700
     72 H34        -18.3450    29.3070    27.0010 h1         1 7Y5       0.056700
     73 H35        -18.9200    31.0970    23.5280 h1         1 7Y5       0.062200
     74 H36        -18.4120    29.3960    23.3410 h1         1 7Y5       0.062200
     75 H37        -14.7050    32.6460    23.7610 h1         1 7Y5       0.023033
     76 H38        -15.2780    32.4720    25.4320 h1         1 7Y5       0.023033
     77 H39        -14.5000    31.0970    24.6090 h1         1 7Y5       0.023033
     78 H10        -21.1280    29.2450    21.2730 ha         1 7Y5       0.140500
     79 C2         -21.2460    22.0480    32.9650 c3         1 7Y5      -0.073400
     80 H11        -25.5360    27.0600    20.5030 ha         1 7Y5       0.101000
@<TRIPOS>BOND
     1     1     4 1   
     2     1     5 1   
     3     1     7 1   
     4     2     9 1   
     5     2    23 1   
     6     2    43 1   
     7     3    19 1   
     8     3    20 1   
     9     3    44 1   
    10     3    45 1   
    11     4    20 1   
    12     4    42 2   
    13     5     6 1   
    14     5    46 1   
    15     5    47 1   
    16     6    22 1   
    17     6    48 1   
    18     6    49 1   
    19     7    21 1   
    20     7    50 1   
    21     7    51 1   
    22     8    22 1   
    23     8    23 1   
    24     8    41 2   
    25     9    29 1   
    26     9    40 2   
    27    10    30 ar  
    28    10    31 1   
    29    10    34 ar  
    30    11    31 ar  
    31    11    32 ar  
    32    11    78 1   
    33    12    13 ar  
    34    12    33 ar  
    35    12    80 1   
    36    13    31 ar  
    37    13    52 1   
    38    14    17 ar  
    39    14    34 ar  
    40    14    35 1   
    41    15    16 1   
    42    15    36 1   
    43    15    53 1   
    44    15    54 1   
    45    16    37 1   
    46    16    38 1   
    47    16    55 1   
    48    17    29 ar  
    49    17    56 1   
    50    18    57 1   
    51    18    58 1   
    52    18    59 1   
    53    18    79 1   
    54    19    62 1   
    55    19    63 1   
    56    19    79 1   
    57    21    22 1   
    58    21    64 1   
    59    21    65 1   
    60    23    24 1   
    61    23    66 1   
    62    24    25 1   
    63    24    67 1   
    64    24    68 1   
    65    25    26 1   
    66    25    27 1   
    67    25    28 1   
    68    29    30 ar  
    69    32    33 ar  
    70    32    69 1   
    71    33    70 1   
    72    35    36 1   
    73    35    37 1   
    74    36    71 1   
    75    36    72 1   
    76    37    73 1   
    77    37    74 1   
    78    38    39 1   
    79    39    75 1   
    80    39    76 1   
    81    39    77 1   
    82    60    79 1   
    83    61    79 1   
@<TRIPOS>SUBSTRUCTURE
     1 7Y5         1 TEMP              0 ****  ****    0 ROOT
