@<TRIPOS>MOLECULE
7Y5
   80    83     1     0     0
SMALL
abcg2


@<TRIPOS>ATOM
      1 N1         -24.7560    23.7530    31.7710 n          1 7Y5      -0.395800
      2 N3         -23.8820    27.2540    26.9250 ns         1 7Y5      -0.426900
      3 C4         -24.7500    21.2210    34.2870 c3         1 7Y5       0.182600
      4 C5         -24.8890    23.2490    33.0200 c          1 7Y5       0.641100
      5 C6         -24.2600    23.0090    30.6260 c6         1 7Y5       0.082500
      6 C7         -25.1150    23.2920    29.4000 c6         1 7Y5       0.075500
      7 C8         -24.9040    25.1780    31.5410 c6         1 7Y5       0.082500
      8 C10        -24.6990    25.2770    28.0400 c          1 7Y5       0.595100
      9 C13        -22.9550    28.1820    27.1530 c          1 7Y5       0.532600
     10 C15        -21.9470    28.4440    23.6640 cp         1 7Y5       0.215500
     11 C17        -21.6590    28.1460    21.1990 ca         1 7Y5      -0.065500
     12 C20        -23.6610    26.2270    21.1360 ca         1 7Y5      -0.136500
     13 C21        -23.3190    26.8310    22.3360 ca         1 7Y5      -0.065500
     14 C22        -20.6500    29.9650    24.7700 ca         1 7Y5       0.378900
     15 C24        -18.4780    32.8310    25.2180 c5         1 7Y5      -0.130400
     16 C26        -17.8870    32.1680    23.9740 c5         1 7Y5       0.141300
     17 C28        -21.2670    29.5910    25.9860 ca         1 7Y5      -0.228000
     18 C1         -21.7380    18.7810    33.8580 c3         1 7Y5      -0.088100
     19 C3         -23.4320    20.5270    34.5580 c3         1 7Y5      -0.091400
     20 O1         -24.6860    21.9300    33.0460 os         1 7Y5      -0.473100
     21 C9         -25.7560    25.4280    30.3040 c6         1 7Y5       0.075500
     22 N2         -25.2050    24.7190    29.1650 n          1 7Y5      -0.410800
     23 C11        -24.8300    26.7890    27.9010 c3         1 7Y5       0.075700
     24 C12        -26.2610    27.1830    27.5090 c3         1 7Y5      -0.390400
     25 P1         -26.6690    28.9640    27.9400 p5         1 7Y5       1.287500
     26 O2         -28.1580    29.0970    27.5970 o          1 7Y5      -0.924833
     27 O3         -25.7470    29.8380    27.0820 o          1 7Y5      -0.924833
     28 O4         -26.3660    29.0260    29.4490 o          1 7Y5      -0.924833
     29 C14        -22.2370    28.6290    25.9010 ca         1 7Y5       0.134500
     30 N4         -22.5910    28.0490    24.7510 nb         1 7Y5      -0.192000
     31 C16        -22.3140    27.7980    22.3810 cp         1 7Y5      -0.124500
     32 C18        -22.0020    27.5400    20.0000 ca         1 7Y5      -0.136500
     33 C19        -23.0040    26.5790    19.9640 ca         1 7Y5      -0.117000
     34 N5         -21.0030    29.3730    23.6250 nb         1 7Y5      -0.291000
     35 N6         -19.7040    30.9080    24.7140 nh         1 7Y5      -0.807300
     36 C23        -19.2730    31.7020    25.8570 c5         1 7Y5       0.236800
     37 C25        -19.0170    31.2660    23.4870 c5         1 7Y5       0.245800
     38 O5         -17.5090    33.0350    22.9450 os         1 7Y5      -0.444000
     39 C27        -16.3540    33.7840    23.2330 c3         1 7Y5       0.151900
     40 O6         -22.6520    28.6420    28.2450 o          1 7Y5      -0.609100
     41 O7         -24.1980    24.6080    27.1470 o          1 7Y5      -0.666100
     42 O8         -25.1740    23.9110    33.9980 o          1 7Y5      -0.561000
     43 H1         -24.0200    26.9890    25.9600 hn         1 7Y5       0.330500
     44 H2         -25.0040    21.8970    35.1020 h1         1 7Y5       0.052700
     45 H3         -25.5560    20.4910    34.1900 h1         1 7Y5       0.052700
     46 H4         -24.2660    21.9430    30.8270 h1         1 7Y5       0.055950
     47 H5         -23.2240    23.3040    30.4200 h1         1 7Y5       0.055950
     48 H6         -26.1220    22.8910    29.5550 h1         1 7Y5       0.077200
     49 H7         -24.6870    22.7990    28.5320 h1         1 7Y5       0.077200
     50 H8         -23.9190    25.6380    31.4000 h1         1 7Y5       0.055950
     51 H9         -25.3710    25.6450    32.4040 h1         1 7Y5       0.055950
     52 H12        -23.8350    26.5510    23.2440 ha         1 7Y5       0.140500
     53 H13        -17.7300    33.2380    25.8980 hc         1 7Y5       0.055700
     54 H14        -19.1450    33.6430    24.9160 hc         1 7Y5       0.055700
     55 H15        -17.0330    31.5440    24.2790 h1         1 7Y5       0.033700
     56 H16        -20.9970    30.0270    26.9360 ha         1 7Y5       0.153000
     57 H17        -21.4580    18.0640    33.0860 hc         1 7Y5       0.025700
     58 H18        -20.9070    19.4790    33.9780 hc         1 7Y5       0.025700
     59 H19        -21.8440    18.2320    34.7960 hc         1 7Y5       0.025700
     60 H20        -22.8980    20.0090    32.5330 hc         1 7Y5       0.046200
     61 H21        -23.8310    18.7850    33.3640 hc         1 7Y5       0.046200
     62 H22        -23.5320    20.0210    35.5230 hc         1 7Y5       0.041700
     63 H23        -22.6440    21.2750    34.6880 hc         1 7Y5       0.041700
     64 H24        -25.8350    26.4990    30.1250 h1         1 7Y5       0.077200
     65 H25        -26.7720    25.0620    30.4840 h1         1 7Y5       0.077200
     66 H26        -24.5790    27.2770    28.8430 h1         1 7Y5       0.115700
     67 H27        -26.9730    26.5430    28.0380 hc         1 7Y5       0.022200
     68 H28        -26.4040    26.9680    26.4450 hc         1 7Y5       0.022200
     69 H31        -21.4860    27.8200    19.0910 ha         1 7Y5       0.101000
     70 H32        -23.2720    26.1070    19.0270 ha         1 7Y5       0.092000
     71 H33        -20.1250    32.0730    26.4280 h1         1 7Y5       0.056700
     72 H34        -18.6530    31.1060    26.5340 h1         1 7Y5       0.056700
     73 H35        -19.6770    31.8130    22.8050 h1         1 7Y5       0.062200
     74 H36        -18.6540    30.3820    22.9620 h1         1 7Y5       0.062200
     75 H37        -16.1030    34.3610    22.3440 h1         1 7Y5       0.023033
     76 H38        -16.5040    34.4820    24.0640 h1         1 7Y5       0.023033
     77 H39        -15.5010    33.1420    23.4800 h1         1 7Y5       0.023033
     78 H10        -20.8780    28.8930    21.2210 ha         1 7Y5       0.140500
     79 C2         -23.0240    19.5110    33.4970 c3         1 7Y5      -0.073400
     80 H11        -24.4430    25.4790    21.1170 ha         1 7Y5       0.101000
@<TRIPOS>BOND
     1     1     4 1   
     2     1     5 1   
     3     1     7 1   
     4     2     9 1   
     5     2    23 1   
     6     2    43 1   
     7     3    19 1   
     8     3    20 1   
     9     3    44 1   
    10     3    45 1   
    11     4    20 1   
    12     4    42 2   
    13     5     6 1   
    14     5    46 1   
    15     5    47 1   
    16     6    22 1   
    17     6    48 1   
    18     6    49 1   
    19     7    21 1   
    20     7    50 1   
    21     7    51 1   
    22     8    22 1   
    23     8    23 1   
    24     8    41 2   
    25     9    29 1   
    26     9    40 2   
    27    10    30 ar  
    28    10    31 1   
    29    10    34 ar  
    30    11    31 ar  
    31    11    32 ar  
    32    11    78 1   
    33    12    13 ar  
    34    12    33 ar  
    35    12    80 1   
    36    13    31 ar  
    37    13    52 1   
    38    14    17 ar  
    39    14    34 ar  
    40    14    35 1   
    41    15    16 1   
    42    15    36 1   
    43    15    53 1   
    44    15    54 1   
    45    16    37 1   
    46    16    38 1   
    47    16    55 1   
    48    17    29 ar  
    49    17    56 1   
    50    18    57 1   
    51    18    58 1   
    52    18    59 1   
    53    18    79 1   
    54    19    62 1   
    55    19    63 1   
    56    19    79 1   
    57    21    22 1   
    58    21    64 1   
    59    21    65 1   
    60    23    24 1   
    61    23    66 1   
    62    24    25 1   
    63    24    67 1   
    64    24    68 1   
    65    25    26 1   
    66    25    27 1   
    67    25    28 1   
    68    29    30 ar  
    69    32    33 ar  
    70    32    69 1   
    71    33    70 1   
    72    35    36 1   
    73    35    37 1   
    74    36    71 1   
    75    36    72 1   
    76    37    73 1   
    77    37    74 1   
    78    38    39 1   
    79    39    75 1   
    80    39    76 1   
    81    39    77 1   
    82    60    79 1   
    83    61    79 1   
@<TRIPOS>SUBSTRUCTURE
     1 7Y5         1 TEMP              0 ****  ****    0 ROOT
