@<TRIPOS>MOLECULE
7Y6
   52    54     1     0     0
SMALL
abcg2


@<TRIPOS>ATOM
      1 CL          -4.8250     3.6000     0.8340 cl         1 7Y6      -0.199000
      2 C12         -3.4630     2.5360     0.7440 ca         1 7Y6       0.177000
      3 C11         -2.2100     3.0100     1.0860 ca         1 7Y6      -0.155000
      4 C10         -1.1420     2.1290     1.0060 ca         1 7Y6      -0.046000
      5 C13         -3.6720     1.2320     0.3260 ca         1 7Y6      -0.213000
      6 C14         -2.5910     0.3540     0.2510 ca         1 7Y6       0.216100
      7 O2          -2.6760    -0.9030    -0.1900 os         1 7Y6      -0.328100
      8 C15         -3.9420    -1.5140    -0.4420 c6         1 7Y6       0.178300
      9 C19         -3.6920    -2.7370    -1.3050 c6         1 7Y6      -0.093900
     10 C18         -5.0110    -3.4590    -1.5550 c6         1 7Y6       0.159800
     11 N2          -5.6180    -3.8320    -0.2900 n7         1 7Y6      -0.859400
     12 C17         -5.9230    -2.6670     0.5200 c6         1 7Y6       0.159800
     13 C16         -4.6410    -1.9130     0.8500 c6         1 7Y6      -0.093900
     14 C9          -1.3110     0.8100     0.6080 ca         1 7Y6      -0.205600
     15 C8          -0.1500    -0.1320     0.6510 c          1 7Y6       0.633700
     16 O1          -0.1970    -1.1910     1.2320 o          1 7Y6      -0.503100
     17 N            2.5540    -1.2180     0.6090 n2         1 7Y6      -0.760100
     18 N1           0.9570     0.3560     0.0060 ns         1 7Y6      -0.446400
     19 C7           2.2520    -0.1530     0.0000 c2         1 7Y6       0.467900
     20 C6           3.1830     0.7370    -0.8030 c3         1 7Y6      -0.134400
     21 C5           4.6100     0.2770    -0.7840 ca         1 7Y6      -0.062300
     22 C4           5.1010    -0.5540    -1.7900 ca         1 7Y6      -0.138000
     23 C3           6.4150    -0.9900    -1.7380 ca         1 7Y6      -0.070000
     24 C2           7.2550    -0.6180    -0.6950 ca         1 7Y6      -0.191000
     25 C20          5.4420     0.6500     0.2610 ca         1 7Y6      -0.138000
     26 C1           6.7660     0.2080     0.3140 ca         1 7Y6       0.144100
     27 O            7.4890     0.6290     1.3680 os         1 7Y6      -0.340100
     28 C            8.8310     0.2010     1.4820 c3         1 7Y6       0.148900
     29 H11         -2.0630     4.0290     1.4130 ha         1 7Y6       0.135000
     30 H13         -4.6710     0.9210     0.0590 ha         1 7Y6       0.137000
     31 H10         -0.1580     2.4820     1.2900 ha         1 7Y6       0.122000
     32 H15         -4.5810    -0.8250    -1.0110 h1         1 7Y6       0.037700
     33 H191        -3.2430    -2.4450    -2.2570 hc         1 7Y6       0.066950
     34 H192        -2.9960    -3.4110    -0.7970 hc         1 7Y6       0.066950
     35 H161        -3.9750    -2.5550     1.4320 hc         1 7Y6       0.066950
     36 H162        -4.8810    -1.0420     1.4640 hc         1 7Y6       0.066950
     37 H181        -5.6630    -2.8040    -2.1570 h1         1 7Y6       0.031950
     38 H182        -4.8300    -4.3580    -2.1440 h1         1 7Y6       0.031950
     39 H2          -6.4690    -4.3510    -0.4670 hn         1 7Y6       0.414000
     40 H171        -6.6210    -1.9740     0.0190 h1         1 7Y6       0.031950
     41 H172        -6.4070    -2.9900     1.4430 h1         1 7Y6       0.031950
     42 H1           0.8180     1.2010    -0.5270 hn         1 7Y6       0.314500
     43 H            3.5440    -1.4080     0.4950 hn         1 7Y6       0.398400
     44 H61C         2.8120     0.7780    -1.8320 hc         1 7Y6       0.063700
     45 H62C         3.1060     1.7560    -0.4120 hc         1 7Y6       0.063700
     46 H4           4.4590    -0.8540    -2.6080 ha         1 7Y6       0.118000
     47 H20          5.0700     1.2930     1.0500 ha         1 7Y6       0.130000
     48 H3           6.8010    -1.6300    -2.5210 ha         1 7Y6       0.115000
     49 HA           8.2750    -0.9760    -0.6890 ha         1 7Y6       0.119000
     50 HC1          8.9090    -0.8870     1.5580 h1         1 7Y6       0.042033
     51 HC2          9.4420     0.5400     0.6410 h1         1 7Y6       0.042033
     52 HC3          9.2200     0.6430     2.3960 h1         1 7Y6       0.042033
@<TRIPOS>BOND
     1     1     2 1   
     2     2     3 ar  
     3     2     5 ar  
     4     3     4 ar  
     5     3    29 1   
     6     4    14 ar  
     7     4    31 1   
     8     5     6 ar  
     9     5    30 1   
    10     6     7 1   
    11     6    14 ar  
    12     7     8 1   
    13     8     9 1   
    14     8    13 1   
    15     8    32 1   
    16     9    10 1   
    17     9    33 1   
    18     9    34 1   
    19    10    11 1   
    20    10    37 1   
    21    10    38 1   
    22    11    12 1   
    23    11    39 1   
    24    12    13 1   
    25    12    40 1   
    26    12    41 1   
    27    13    35 1   
    28    13    36 1   
    29    14    15 1   
    30    15    16 2   
    31    15    18 1   
    32    17    19 2   
    33    17    43 1   
    34    18    19 1   
    35    18    42 1   
    36    19    20 1   
    37    20    21 1   
    38    20    44 1   
    39    20    45 1   
    40    21    22 ar  
    41    21    25 ar  
    42    22    23 ar  
    43    22    46 1   
    44    23    24 ar  
    45    23    48 1   
    46    24    26 ar  
    47    24    49 1   
    48    25    26 ar  
    49    25    47 1   
    50    26    27 1   
    51    27    28 1   
    52    28    50 1   
    53    28    51 1   
    54    28    52 1   
@<TRIPOS>SUBSTRUCTURE
     1 7Y6         1 TEMP              0 ****  ****    0 ROOT
