@<TRIPOS>MOLECULE
7Y6
   52    54     1     0     0
SMALL
No Charge or Current Charge


@<TRIPOS>ATOM
      1 Cl          -4.9460     3.6530     0.6580 cl         1 7Y6      -0.199000
      2 C12         -3.5740     2.5590     0.5550 ca         1 7Y6       0.177000
      3 C11         -2.3000     3.0000     0.9250 ca         1 7Y6      -0.155000
      4 C10         -1.2030     2.1320     0.8370 ca         1 7Y6      -0.046000
      5 C13         -3.7600     1.2490     0.1010 ca         1 7Y6      -0.213000
      6 C14         -2.6670     0.3560     0.0170 ca         1 7Y6       0.216100
      7 O2          -2.8220    -0.9280    -0.4770 os         1 7Y6      -0.328100
      8 C15         -4.1050    -1.5850    -0.5640 c6         1 7Y6       0.178300
      9 C19         -3.9410    -2.9090    -1.3460 c6         1 7Y6      -0.093900
     10 C18         -5.2750    -3.6880    -1.3960 c6         1 7Y6       0.159800
     11 N2          -5.7970    -3.9320    -0.0310 n7         1 7Y6      -0.859400
     12 C17         -5.9970    -2.6860     0.7430 c6         1 7Y6       0.159800
     13 C16         -4.6820    -1.8800     0.8460 c6         1 7Y6      -0.093900
     14 C9          -1.3700     0.8000     0.3800 ca         1 7Y6      -0.205600
     15 C8          -0.1770    -0.1300     0.3060 c          1 7Y6       0.633700
     16 O1          -0.2690    -1.3370     0.4790 o          1 7Y6      -0.503100
     17 N            2.6330    -1.1880     0.4410 n2         1 7Y6      -0.760100
     18 N1           1.0270     0.5040     0.0830 ns         1 7Y6      -0.446400
     19 C7           2.3100    -0.0270     0.0130 c2         1 7Y6       0.467900
     20 C6           3.3150     0.9540    -0.5600 c3         1 7Y6      -0.134400
     21 C5           4.7480     0.4310    -0.6190 ca         1 7Y6      -0.062300
     22 C4           5.1960    -0.2840    -1.7450 ca         1 7Y6      -0.138000
     23 C3           6.5130    -0.7710    -1.7980 ca         1 7Y6      -0.070000
     24 C2           7.3920    -0.5480    -0.7240 ca         1 7Y6      -0.191000
     25 C20          5.6320     0.6520     0.4540 ca         1 7Y6      -0.138000
     26 C1           6.9500     0.1690     0.4100 ca         1 7Y6       0.144100
     27 O            7.7660     0.4190     1.4940 os         1 7Y6      -0.340100
     28 C            9.1310    -0.0320     1.5480 c3         1 7Y6       0.148900
     29 H11         -2.1630     4.0180     1.2820 ha         1 7Y6       0.135000
     30 H13         -4.7610     0.9530    -0.1930 ha         1 7Y6       0.137000
     31 H10         -0.2290     2.5010     1.1550 ha         1 7Y6       0.122000
     32 H15         -4.8000    -0.9510    -1.1300 h1         1 7Y6       0.037700
     33 H191        -3.5970    -2.6990    -2.3670 hc         1 7Y6       0.066950
     34 H192        -3.1700    -3.5300    -0.8710 hc         1 7Y6       0.066950
     35 H161        -3.9500    -2.4460     1.4370 hc         1 7Y6       0.066950
     36 H162        -4.8720    -0.9480     1.3930 hc         1 7Y6       0.066950
     37 H181        -6.0150    -3.1150    -1.9750 h1         1 7Y6       0.031950
     38 H182        -5.1220    -4.6490    -1.9090 h1         1 7Y6       0.031950
     39 H2          -6.6970    -4.4270    -0.1030 hn         1 7Y6       0.414000
     40 H171        -6.7680    -2.0700     0.2550 h1         1 7Y6       0.031950
     41 H172        -6.3580    -2.9340     1.7520 h1         1 7Y6       0.031950
     42 H1           0.9540     1.4920    -0.1040 hn         1 7Y6       0.314500
     43 H            3.6440    -1.3130     0.2900 hn         1 7Y6       0.398400
     44 H61C         2.9950     1.2440    -1.5680 hc         1 7Y6       0.063700
     45 H62C         3.2920     1.8780     0.0300 hc         1 7Y6       0.063700
     46 H4           4.5240    -0.4640    -2.5820 ha         1 7Y6       0.118000
     47 H20          5.2980     1.2010     1.3310 ha         1 7Y6       0.130000
     48 H3           6.8520    -1.3230    -2.6720 ha         1 7Y6       0.115000
     49 HA           8.4040    -0.9350    -0.7900 ha         1 7Y6       0.119000
     50 HC1          9.1840    -1.1260     1.4810 h1         1 7Y6       0.042033
     51 HC2          9.7180     0.4000     0.7270 h1         1 7Y6       0.042033
     52 HC3          9.5960     0.2730     2.4940 h1         1 7Y6       0.042033
@<TRIPOS>BOND
     1     1     2 1   
     2     2     3 ar  
     3     2     5 ar  
     4     3     4 ar  
     5     3    29 1   
     6     4    14 ar  
     7     4    31 1   
     8     5     6 ar  
     9     5    30 1   
    10     6     7 1   
    11     6    14 ar  
    12     7     8 1   
    13     8     9 1   
    14     8    13 1   
    15     8    32 1   
    16     9    10 1   
    17     9    33 1   
    18     9    34 1   
    19    10    11 1   
    20    10    37 1   
    21    10    38 1   
    22    11    12 1   
    23    11    39 1   
    24    12    13 1   
    25    12    40 1   
    26    12    41 1   
    27    13    35 1   
    28    13    36 1   
    29    14    15 1   
    30    15    16 2   
    31    15    18 1   
    32    17    19 2   
    33    17    43 1   
    34    18    19 1   
    35    18    42 1   
    36    19    20 1   
    37    20    21 1   
    38    20    44 1   
    39    20    45 1   
    40    21    22 ar  
    41    21    25 ar  
    42    22    23 ar  
    43    22    46 1   
    44    23    24 ar  
    45    23    48 1   
    46    24    26 ar  
    47    24    49 1   
    48    25    26 ar  
    49    25    47 1   
    50    26    27 1   
    51    27    28 1   
    52    28    50 1   
    53    28    51 1   
    54    28    52 1   
@<TRIPOS>SUBSTRUCTURE
     1 7Y6         1 TEMP              0 ****  ****    0 ROOT
