@<TRIPOS>MOLECULE
7Y9
   65    68     1     0     0
SMALL
bcc


@<TRIPOS>ATOM
      1 C10          6.4370     1.9820    -2.2400 c3         1 7Y9      -0.082100
      2 C13          7.5780     1.7570     1.0680 ca         1 7Y9      -0.085000
      3 C15          2.7220    -0.1270    -1.9410 ca         1 7Y9      -0.190500
      4 C17          2.1650    -0.4880    -0.7180 ca         1 7Y9       0.139100
      5 C20          8.8790    -0.2170     1.5320 ca         1 7Y9       0.136100
      6 C21          0.3810    -1.5350     0.4620 c3         1 7Y9       0.188700
      7 C22         -0.8980    -2.2390     0.1210 ca         1 7Y9      -0.100300
      8 C24         -3.2080    -2.1360    -0.5940 ca         1 7Y9      -0.102300
      9 C26         -4.4180    -1.3260    -0.9450 c3         1 7Y9       0.187700
     10 C28         -2.1490    -4.2700    -0.2240 ca         1 7Y9      -0.137000
     11 O01          1.0080    -1.1850    -0.7630 os         1 7Y9      -0.321900
     12 O02          9.8150    -0.9060     2.2180 oh         1 7Y9      -0.495100
     13 O03         -5.0400    -0.9420     0.2760 os         1 7Y9      -0.317900
     14 N04        -10.4860     2.0310     1.4520 n2         1 7Y9      -0.831100
     15 N05        -10.0660     2.8590    -0.7130 nv         1 7Y9      -0.966800
     16 C06          5.8520     1.8140    -0.8320 c3         1 7Y9       0.061600
     17 C07          4.5750     0.9770    -0.8290 ca         1 7Y9      -0.108300
     18 C08          6.9020     1.1230     0.0330 ca         1 7Y9      -0.108300
     19 C09          5.4940     3.2120    -0.3090 c3         1 7Y9      -0.082100
     20 C11          3.9060     0.5930    -1.9890 ca         1 7Y9      -0.087000
     21 C12          4.0060     0.5980     0.3830 ca         1 7Y9      -0.087000
     22 C14          7.2440    -0.2060    -0.2310 ca         1 7Y9      -0.085000
     23 C16          2.8210    -0.1200     0.4550 ca         1 7Y9      -0.190500
     24 C18          8.5540     1.1030     1.8130 ca         1 7Y9      -0.194500
     25 C19          8.2120    -0.8730     0.4960 ca         1 7Y9      -0.194500
     26 C23         -2.0220    -1.5040    -0.2400 ca         1 7Y9      -0.074000
     27 C25         -0.9700    -3.6280     0.1250 ca         1 7Y9      -0.092000
     28 C27         -3.2640    -3.5260    -0.5820 ca         1 7Y9      -0.092000
     29 C29         -6.1650    -0.2070     0.2210 ca         1 7Y9       0.158100
     30 C30         -6.7810     0.2060    -0.9570 ca         1 7Y9      -0.203000
     31 C31         -6.7330     0.1470     1.4490 ca         1 7Y9      -0.203000
     32 C32         -8.5170     1.3240     0.3170 ca         1 7Y9      -0.185900
     33 C33         -7.9440     0.9640    -0.8980 ca         1 7Y9      -0.058000
     34 C34         -7.8920     0.8940     1.4890 ca         1 7Y9      -0.058000
     35 C35         -9.7680     2.1220     0.3990 ce         1 7Y9       0.666800
     36 H1           5.7510     2.5180    -2.8990 hc         1 7Y9       0.037367
     37 H2           7.3590     2.5640    -2.1860 hc         1 7Y9       0.037367
     38 H3           6.6780     1.0250    -2.7060 hc         1 7Y9       0.037367
     39 H4           7.3560     2.7850     1.3200 ha         1 7Y9       0.133500
     40 H5           2.2230    -0.4100    -2.8600 ha         1 7Y9       0.139000
     41 H6           0.1750    -0.6370     1.0550 h1         1 7Y9       0.042200
     42 H7           1.0310    -2.1860     1.0560 h1         1 7Y9       0.042200
     43 H8          -4.1340    -0.4380    -1.5200 h1         1 7Y9       0.043200
     44 H9          -5.1100    -1.9150    -1.5560 h1         1 7Y9       0.043200
     45 H10         -2.1990    -5.3510    -0.2190 ha         1 7Y9       0.136000
     46 H11         10.2040    -0.3500     2.9020 ho         1 7Y9       0.424000
     47 H12        -11.2920     2.6490     1.4020 hn         1 7Y9       0.369400
     48 H13        -10.8330     3.5090    -0.6420 hn         1 7Y9       0.403800
     49 H14         -9.3050     3.1970    -1.2790 hn         1 7Y9       0.403800
     50 H15          5.1030     3.1840     0.7090 hc         1 7Y9       0.037367
     51 H16          6.3580     3.8780    -0.3220 hc         1 7Y9       0.037367
     52 H17          4.7270     3.6530    -0.9460 hc         1 7Y9       0.037367
     53 H18          4.2990     0.8500    -2.9630 ha         1 7Y9       0.132500
     54 H19          4.4980     0.8630     1.3120 ha         1 7Y9       0.132500
     55 H20          6.7350    -0.7420    -1.0240 ha         1 7Y9       0.133500
     56 H21          2.4340    -0.3840     1.4300 ha         1 7Y9       0.139000
     57 H22          9.0560     1.6320     2.6150 ha         1 7Y9       0.137500
     58 H23          8.4540    -1.9040     0.2680 ha         1 7Y9       0.137500
     59 H24         -1.9710    -0.4200    -0.2470 ha         1 7Y9       0.138000
     60 H25         -0.0990    -4.2100     0.4030 ha         1 7Y9       0.134000
     61 H26         -4.1830    -4.0300    -0.8570 ha         1 7Y9       0.134000
     62 H27         -6.3820    -0.0520    -1.9280 ha         1 7Y9       0.142000
     63 H28         -6.2550    -0.1670     2.3680 ha         1 7Y9       0.142000
     64 H29         -8.4080     1.2500    -1.8330 ha         1 7Y9       0.144500
     65 H30         -8.3220     1.1570     2.4460 ha         1 7Y9       0.144500
@<TRIPOS>BOND
     1     1    16 1   
     2     1    36 1   
     3     1    37 1   
     4     1    38 1   
     5     2    18 ar  
     6     2    24 ar  
     7     2    39 1   
     8     3     4 ar  
     9     3    20 ar  
    10     3    40 1   
    11     4    11 1   
    12     4    23 ar  
    13     5    12 1   
    14     5    24 ar  
    15     5    25 ar  
    16     6     7 1   
    17     6    11 1   
    18     6    41 1   
    19     6    42 1   
    20     7    26 ar  
    21     7    27 ar  
    22     8     9 1   
    23     8    26 ar  
    24     8    28 ar  
    25     9    13 1   
    26     9    43 1   
    27     9    44 1   
    28    10    27 ar  
    29    10    28 ar  
    30    10    45 1   
    31    12    46 1   
    32    13    29 1   
    33    14    35 2   
    34    14    47 1   
    35    15    35 1   
    36    15    48 1   
    37    15    49 1   
    38    16    17 1   
    39    16    18 1   
    40    16    19 1   
    41    17    20 ar  
    42    17    21 ar  
    43    18    22 ar  
    44    19    50 1   
    45    19    51 1   
    46    19    52 1   
    47    20    53 1   
    48    21    23 ar  
    49    21    54 1   
    50    22    25 ar  
    51    22    55 1   
    52    23    56 1   
    53    24    57 1   
    54    25    58 1   
    55    26    59 1   
    56    27    60 1   
    57    28    61 1   
    58    29    30 ar  
    59    29    31 ar  
    60    30    33 ar  
    61    30    62 1   
    62    31    34 ar  
    63    31    63 1   
    64    32    33 ar  
    65    32    34 ar  
    66    32    35 1   
    67    33    64 1   
    68    34    65 1   
@<TRIPOS>SUBSTRUCTURE
     1 7Y9         1 TEMP              0 ****  ****    0 ROOT
