@<TRIPOS>MOLECULE
7Y9
   65    68     1     0     0
SMALL
No Charge or Current Charge


@<TRIPOS>ATOM
      1 C10          6.7640     1.8610    -2.3190 c3         1 7Y9      -0.082100
      2 C13          7.7800     1.7440     1.0710 ca         1 7Y9      -0.067000
      3 C15          2.8790    -0.0840    -2.0310 ca         1 7Y9      -0.172500
      4 C17          2.2750    -0.3570    -0.7960 ca         1 7Y9       0.139100
      5 C20          8.8580    -0.3410     1.7180 ca         1 7Y9       0.136100
      6 C21          0.3780    -1.3670     0.4130 c3         1 7Y9       0.211900
      7 C22         -0.8990    -2.1110     0.0490 ca         1 7Y9      -0.100300
      8 C24         -3.2540    -2.0750    -0.6160 ca         1 7Y9      -0.102300
      9 C26         -4.5110    -1.2920    -0.9680 c3         1 7Y9       0.210900
     10 C28         -2.1040    -4.2020    -0.3000 ca         1 7Y9      -0.119000
     11 O01          1.0760    -1.0390    -0.8000 os         1 7Y9      -0.345100
     12 O02          9.7120    -1.0320     2.5250 oh         1 7Y9      -0.534100
     13 O03         -5.1980    -0.9620     0.2510 os         1 7Y9      -0.341100
     14 N04        -10.8430     1.9490     1.5130 n2         1 7Y9      -0.831100
     15 N05        -10.4140     2.8140    -0.5170 nv         1 7Y9      -1.077200
     16 C06          6.0930     1.8080    -0.9180 c3         1 7Y9       0.061600
     17 C07          4.7470     1.0420    -0.9130 ca         1 7Y9      -0.108300
     18 C08          7.0760     1.0820     0.0330 ca         1 7Y9      -0.108300
     19 C09          5.7910     3.2710    -0.4870 c3         1 7Y9      -0.082100
     20 C11          4.1010     0.6080    -2.0960 ca         1 7Y9      -0.069000
     21 C12          4.1260     0.7640     0.3260 ca         1 7Y9      -0.069000
     22 C14          7.2910    -0.3050    -0.1400 ca         1 7Y9      -0.067000
     23 C16          2.9050     0.0720     0.3890 ca         1 7Y9      -0.172500
     24 C18          8.6620     1.0340     1.9050 ca         1 7Y9      -0.176500
     25 C19          8.1740    -1.0100     0.6970 ca         1 7Y9      -0.176500
     26 C23         -2.0670    -1.3950    -0.2780 ca         1 7Y9      -0.056000
     27 C25         -0.9230    -3.5190     0.0340 ca         1 7Y9      -0.074000
     28 C27         -3.2670    -3.4830    -0.6230 ca         1 7Y9      -0.074000
     29 C29         -6.3750    -0.2440     0.2600 ca         1 7Y9       0.158100
     30 C30         -7.0000     0.2120    -0.9190 ca         1 7Y9      -0.185000
     31 C31         -6.9690     0.0270     1.5000 ca         1 7Y9      -0.185000
     32 C32         -8.7940     1.2380     0.4030 ca         1 7Y9      -0.185900
     33 C33         -8.2010     0.9400    -0.8470 ca         1 7Y9      -0.040000
     34 C34         -8.1700     0.7530     1.5750 ca         1 7Y9      -0.040000
     35 C35        -10.0910     1.9800     0.4920 ce         1 7Y9       0.666800
     36 H1           6.1550     2.4300    -3.0320 hc         1 7Y9       0.037367
     37 H2           7.7430     2.3520    -2.2570 hc         1 7Y9       0.037367
     38 H3           6.9220     0.8550    -2.7260 hc         1 7Y9       0.037367
     39 H4           7.6600     2.8090     1.2470 ha         1 7Y9       0.115500
     40 H5           2.3950    -0.4110    -2.9480 ha         1 7Y9       0.121000
     41 H6           0.1220    -0.4560     0.9700 h1         1 7Y9       0.042200
     42 H7           1.0010    -2.0000     1.0590 h1         1 7Y9       0.042200
     43 H8          -4.2320    -0.3810    -1.5140 h1         1 7Y9       0.043200
     44 H9          -5.1520    -1.8990    -1.6210 h1         1 7Y9       0.043200
     45 H10         -2.1180    -5.2900    -0.3080 ha         1 7Y9       0.118000
     46 H11         10.0970    -0.4070     3.1750 ho         1 7Y9       0.463000
     47 H12        -11.7440     2.3660     1.2550 hn         1 7Y9       0.369400
     48 H13        -11.0160     3.5900    -0.2700 hn         1 7Y9       0.459000
     49 H14         -9.6530     3.0470    -1.1450 hn         1 7Y9       0.459000
     50 H15          5.3990     3.3150     0.5360 hc         1 7Y9       0.037367
     51 H16          6.6900     3.8970    -0.5400 hc         1 7Y9       0.037367
     52 H17          5.0390     3.7180    -1.1490 hc         1 7Y9       0.037367
     53 H18          4.5260     0.7980    -3.0770 ha         1 7Y9       0.114500
     54 H19          4.5970     1.0850     1.2540 ha         1 7Y9       0.114500
     55 H20          6.7680    -0.8440    -0.9270 ha         1 7Y9       0.115500
     56 H21          2.4670    -0.1200     1.3640 ha         1 7Y9       0.121000
     57 H22          9.1910     1.5630     2.6950 ha         1 7Y9       0.119500
     58 H23          8.3240    -2.0760     0.5500 ha         1 7Y9       0.119500
     59 H24         -2.0530    -0.3070    -0.2700 ha         1 7Y9       0.120000
     60 H25         -0.0260    -4.0840     0.2810 ha         1 7Y9       0.116000
     61 H26         -4.1780    -4.0210    -0.8780 ha         1 7Y9       0.116000
     62 H27         -6.5750     0.0080    -1.8980 ha         1 7Y9       0.124000
     63 H28         -6.4960    -0.3300     2.4110 ha         1 7Y9       0.124000
     64 H29         -8.6730     1.2590    -1.7750 ha         1 7Y9       0.126500
     65 H30         -8.6100     0.9450     2.5520 ha         1 7Y9       0.126500
@<TRIPOS>BOND
     1     1    16 1   
     2     1    36 1   
     3     1    37 1   
     4     1    38 1   
     5     2    18 ar  
     6     2    24 ar  
     7     2    39 1   
     8     3     4 ar  
     9     3    20 ar  
    10     3    40 1   
    11     4    11 1   
    12     4    23 ar  
    13     5    12 1   
    14     5    24 ar  
    15     5    25 ar  
    16     6     7 1   
    17     6    11 1   
    18     6    41 1   
    19     6    42 1   
    20     7    26 ar  
    21     7    27 ar  
    22     8     9 1   
    23     8    26 ar  
    24     8    28 ar  
    25     9    13 1   
    26     9    43 1   
    27     9    44 1   
    28    10    27 ar  
    29    10    28 ar  
    30    10    45 1   
    31    12    46 1   
    32    13    29 1   
    33    14    35 2   
    34    14    47 1   
    35    15    35 1   
    36    15    48 1   
    37    15    49 1   
    38    16    17 1   
    39    16    18 1   
    40    16    19 1   
    41    17    20 ar  
    42    17    21 ar  
    43    18    22 ar  
    44    19    50 1   
    45    19    51 1   
    46    19    52 1   
    47    20    53 1   
    48    21    23 ar  
    49    21    54 1   
    50    22    25 ar  
    51    22    55 1   
    52    23    56 1   
    53    24    57 1   
    54    25    58 1   
    55    26    59 1   
    56    27    60 1   
    57    28    61 1   
    58    29    30 ar  
    59    29    31 ar  
    60    30    33 ar  
    61    30    62 1   
    62    31    34 ar  
    63    31    63 1   
    64    32    33 ar  
    65    32    34 ar  
    66    32    35 1   
    67    33    64 1   
    68    34    65 1   
@<TRIPOS>SUBSTRUCTURE
     1 7Y9         1 TEMP              0 ****  ****    0 ROOT
