@<TRIPOS>MOLECULE
7YB
   78    81     1     0     0
SMALL
No Charge or Current Charge


@<TRIPOS>ATOM
      1 C1          -6.3140   -20.1210   -18.3980 ca         1 7YB      -0.124300
      2 C10        -11.1640   -18.1730   -14.9450 cx         1 7YB      -0.101900
      3 C11        -10.0020   -17.3980   -15.5380 cx         1 7YB      -0.035600
      4 C12         -9.9370   -15.9000   -15.2490 c          1 7YB       0.616100
      5 C13         -7.4180   -13.9290   -17.8560 c6         1 7YB      -0.059700
      6 C14         -9.5580   -13.6390   -16.3190 c3         1 7YB       0.035700
      7 C15        -10.8960   -12.8490   -16.1810 c          1 7YB       0.569100
      8 C16         -6.7150   -13.3470   -19.1140 c6         1 7YB      -0.072900
      9 C17        -13.4160   -13.0720   -16.1570 c3         1 7YB       0.109700
     10 C18         -5.4250   -14.1330   -19.4590 c6         1 7YB      -0.072900
     11 C19        -14.3970   -14.0310   -16.8820 c3         1 7YB      -0.069400
     12 C2          -6.6280   -19.8290   -19.7430 ca         1 7YB      -0.086000
     13 C20        -14.0000   -14.4060   -18.3400 c5         1 7YB      -0.154700
     14 C21        -13.8330   -13.2020   -19.3080 c5         1 7YB      -0.092400
     15 C22        -13.9750   -13.8970   -20.6890 c5         1 7YB       0.100000
     16 C23         -4.4500   -14.1630   -18.2570 c6         1 7YB      -0.075400
     17 C24        -15.0380   -15.2750   -19.0610 c          1 7YB       0.555000
     18 C25         -5.1390   -14.7310   -16.9920 c6         1 7YB      -0.072900
     19 C26         -6.4320   -13.9480   -16.6520 c6         1 7YB      -0.072900
     20 C3          -7.0740   -20.8470   -20.6060 ca         1 7YB      -0.115500
     21 C30        -11.1290   -17.8950   -16.4270 cx         1 7YB      -0.101900
     22 C34         -8.7390   -13.1540   -17.5460 c3         1 7YB      -0.076400
     23 C4          -7.2100   -22.1640   -20.1350 ca         1 7YB      -0.102000
     24 C5          -6.9030   -22.4610   -18.7960 ca         1 7YB      -0.115500
     25 C6          -6.4570   -21.4440   -17.9320 ca         1 7YB      -0.086000
     26 C7          -5.8150   -19.0230   -17.4570 c3         1 7YB       0.228900
     27 C8         -13.8220   -12.7750   -14.6850 c3         1 7YB       0.149600
     28 C9          -7.9280   -18.1300   -16.7260 c          1 7YB       0.644100
     29 N10         -8.7370   -18.1030   -15.6220 ns         1 7YB      -0.454900
     30 N13         -9.7710   -15.1080   -16.3630 ns         1 7YB      -0.498900
     31 N16        -12.0500   -13.6020   -16.2300 ns         1 7YB      -0.505900
     32 N23        -14.9870   -14.9050   -20.3770 ns         1 7YB      -0.519900
     33 O26        -15.9160   -15.9850   -18.6000 o          1 7YB      -0.551000
     34 O29         -8.1800   -17.5890   -17.7920 o          1 7YB      -0.519000
     35 O33        -10.0330   -15.4310   -14.1230 o          1 7YB      -0.612100
     36 O8          -6.7890   -18.8090   -16.4160 os         1 7YB      -0.458100
     37 O9         -15.1130   -12.1480   -14.6180 oh         1 7YB      -0.669000
     38 H1         -11.8950   -17.6300   -14.3490 hc         1 7YB       0.087200
     39 H2         -10.9870   -19.1960   -14.6200 hc         1 7YB       0.087200
     40 H3          -7.7050   -14.9630   -18.0860 hc         1 7YB       0.042700
     41 H4          -8.9840   -13.4090   -15.4120 h1         1 7YB       0.089700
     42 H5          -6.4660   -12.2890   -18.9490 hc         1 7YB       0.040950
     43 H6          -7.3990   -13.3750   -19.9740 hc         1 7YB       0.040950
     44 H7         -13.4280   -12.1150   -16.6960 h1         1 7YB       0.082700
     45 H8          -5.6850   -15.1610   -19.7510 hc         1 7YB       0.040200
     46 H9          -4.9310   -13.6780   -20.3280 hc         1 7YB       0.040200
     47 H10        -14.4950   -14.9480   -16.2870 hc         1 7YB       0.072200
     48 H11        -15.3930   -13.5700   -16.8890 hc         1 7YB       0.072200
     49 H12         -6.5270   -18.8130   -20.1210 ha         1 7YB       0.117500
     50 H13        -13.0620   -14.9740   -18.3390 hc         1 7YB       0.077700
     51 H14        -12.8730   -12.6830   -19.1940 hc         1 7YB       0.061700
     52 H15        -14.6280   -12.4610   -19.1650 hc         1 7YB       0.061700
     53 H16        -14.2970   -13.1970   -21.4720 h1         1 7YB       0.042200
     54 H17        -13.0320   -14.3640   -21.0040 h1         1 7YB       0.042200
     55 H18         -3.5700   -14.7730   -18.5070 hc         1 7YB       0.038700
     56 H19         -4.0800   -13.1480   -18.0540 hc         1 7YB       0.038700
     57 H20         -5.3820   -15.7910   -17.1480 hc         1 7YB       0.040200
     58 H21         -4.4450   -14.6930   -16.1410 hc         1 7YB       0.040200
     59 H22         -6.1760   -12.9190   -16.3610 hc         1 7YB       0.040950
     60 H23         -6.9040   -14.4130   -15.7770 hc         1 7YB       0.040950
     61 H24         -7.3140   -20.6150   -21.6420 ha         1 7YB       0.113000
     62 H25        -10.9240   -18.7300   -17.0930 hc         1 7YB       0.087200
     63 H26        -11.8380   -17.1700   -16.8190 hc         1 7YB       0.087200
     64 H27         -8.5110   -12.0890   -17.4050 hc         1 7YB       0.061700
     65 H28         -9.3930   -13.2030   -18.4270 hc         1 7YB       0.061700
     66 H29         -7.5540   -22.9510   -20.8040 ha         1 7YB       0.112000
     67 H30         -7.0100   -23.4800   -18.4280 ha         1 7YB       0.113000
     68 H31         -6.2210   -21.6850   -16.8970 ha         1 7YB       0.117500
     69 H32         -4.8630   -19.3510   -17.0170 h1         1 7YB       0.072200
     70 H33         -5.6110   -18.0980   -18.0150 h1         1 7YB       0.072200
     71 H34        -13.8230   -13.7150   -14.1170 h1         1 7YB       0.032700
     72 H35        -13.0650   -12.1190   -14.2340 h1         1 7YB       0.032700
     73 H36         -8.3680   -18.5760   -14.8060 hn         1 7YB       0.331500
     74 H37         -9.6400   -15.5980   -17.2420 hn         1 7YB       0.322500
     75 H38        -11.9220   -14.6000   -16.3390 hn         1 7YB       0.339500
     76 H39        -15.6580   -15.3000   -21.0260 hn         1 7YB       0.328500
     77 H40        -15.2930   -11.9610   -13.6690 ho         1 7YB       0.447000
     78 O38        -10.9320   -11.6340   -16.0410 o          1 7YB      -0.606100
@<TRIPOS>BOND
     1     1    12 ar  
     2     1    25 ar  
     3     1    26 1   
     4     2     3 1   
     5     2    21 1   
     6     2    38 1   
     7     2    39 1   
     8     3     4 1   
     9     3    21 1   
    10     3    29 1   
    11     4    30 1   
    12     4    35 2   
    13     5     8 1   
    14     5    19 1   
    15     5    22 1   
    16     5    40 1   
    17     6     7 1   
    18     6    22 1   
    19     6    30 1   
    20     6    41 1   
    21     7    31 1   
    22     7    78 2   
    23     8    10 1   
    24     8    42 1   
    25     8    43 1   
    26     9    11 1   
    27     9    27 1   
    28     9    31 1   
    29     9    44 1   
    30    10    16 1   
    31    10    45 1   
    32    10    46 1   
    33    11    13 1   
    34    11    47 1   
    35    11    48 1   
    36    12    20 ar  
    37    12    49 1   
    38    13    14 1   
    39    13    17 1   
    40    13    50 1   
    41    14    15 1   
    42    14    51 1   
    43    14    52 1   
    44    15    32 1   
    45    15    53 1   
    46    15    54 1   
    47    16    18 1   
    48    16    55 1   
    49    16    56 1   
    50    17    32 1   
    51    17    33 2   
    52    18    19 1   
    53    18    57 1   
    54    18    58 1   
    55    19    59 1   
    56    19    60 1   
    57    20    23 ar  
    58    20    61 1   
    59    21    62 1   
    60    21    63 1   
    61    22    64 1   
    62    22    65 1   
    63    23    24 ar  
    64    23    66 1   
    65    24    25 ar  
    66    24    67 1   
    67    25    68 1   
    68    26    36 1   
    69    26    69 1   
    70    26    70 1   
    71    27    37 1   
    72    27    71 1   
    73    27    72 1   
    74    28    29 1   
    75    28    34 2   
    76    28    36 1   
    77    29    73 1   
    78    30    74 1   
    79    31    75 1   
    80    32    76 1   
    81    37    77 1   
@<TRIPOS>SUBSTRUCTURE
     1 7YB         1 TEMP              0 ****  ****    0 ROOT
