@<TRIPOS>MOLECULE
7YB
   78    81     1     0     0
SMALL
abcg2


@<TRIPOS>ATOM
      1 C1          -7.8670   -21.3850   -16.6090 ca         1 7YB      -0.124300
      2 C10        -10.7940   -16.7870   -19.6670 cx         1 7YB      -0.101900
      3 C11         -9.9510   -16.8180   -18.4090 cx         1 7YB      -0.035600
      4 C12         -9.7450   -15.5590   -17.6030 c          1 7YB       0.616100
      5 C13         -7.3960   -12.5510   -18.8710 c6         1 7YB      -0.059700
      6 C14         -9.5620   -13.1040   -17.6060 c3         1 7YB       0.035700
      7 C15        -10.9930   -12.6380   -17.2780 c          1 7YB       0.569100
      8 C16         -6.7340   -11.4790   -19.7450 c6         1 7YB      -0.072900
      9 C17        -12.9050   -13.1150   -15.7890 c3         1 7YB       0.109700
     10 C18         -5.3310   -11.8870   -20.1950 c6         1 7YB      -0.072900
     11 C19        -13.4000   -14.4610   -15.2600 c3         1 7YB      -0.069400
     12 C2          -6.4990   -21.5750   -16.7900 ca         1 7YB      -0.086000
     13 C20        -13.2160   -15.6100   -16.2450 c5         1 7YB      -0.154700
     14 C21        -13.9270   -15.4610   -17.5980 c5         1 7YB      -0.092400
     15 C22        -14.2560   -16.9030   -18.0120 c5         1 7YB       0.100000
     16 C23         -4.4420   -12.2300   -18.9990 c6         1 7YB      -0.075400
     17 C24        -13.7340   -16.9410   -15.7100 c          1 7YB       0.555000
     18 C25         -5.0900   -13.3020   -18.1220 c6         1 7YB      -0.072900
     19 C26         -6.4960   -12.8950   -17.6770 c6         1 7YB      -0.072900
     20 C3          -6.0300   -22.5210   -17.6980 ca         1 7YB      -0.115500
     21 C30         -9.3180   -16.9610   -19.7770 cx         1 7YB      -0.101900
     22 C34         -8.7990   -12.1000   -18.4570 c3         1 7YB      -0.076400
     23 C4          -6.9290   -23.2770   -18.4420 ca         1 7YB      -0.102000
     24 C5          -8.2980   -23.0880   -18.2700 ca         1 7YB      -0.115500
     25 C6          -8.7640   -22.1510   -17.3550 ca         1 7YB      -0.086000
     26 C7          -8.3710   -20.3780   -15.6100 c3         1 7YB       0.228900
     27 C8         -13.0920   -11.9910   -14.7730 c3         1 7YB       0.149600
     28 C9          -9.0010   -18.5730   -17.0220 c          1 7YB       0.644100
     29 N10        -10.0730   -18.0000   -17.6220 ns         1 7YB      -0.454900
     30 N13         -9.6650   -14.3960   -18.2790 ns         1 7YB      -0.498900
     31 N16        -11.5000   -13.2010   -16.1650 ns         1 7YB      -0.505900
     32 N23        -14.3300   -17.5910   -16.7280 ns         1 7YB      -0.519900
     33 O26        -13.6090   -17.3620   -14.5610 o          1 7YB      -0.551000
     34 O29         -7.8370   -18.2910   -17.2320 o          1 7YB      -0.519000
     35 O33         -9.6670   -15.6100   -16.3740 o          1 7YB      -0.612100
     36 O8          -9.4080   -19.5360   -16.1620 os         1 7YB      -0.458100
     37 O9         -14.4900   -11.8210   -14.5390 oh         1 7YB      -0.669000
     38 H1         -11.2440   -15.8450   -19.9480 hc         1 7YB       0.087200
     39 H2         -11.4210   -17.6530   -19.8250 hc         1 7YB       0.087200
     40 H3          -7.4930   -13.4570   -19.4810 hc         1 7YB       0.042700
     41 H4          -9.0370   -13.2800   -16.6690 h1         1 7YB       0.089700
     42 H5          -6.6730   -10.5460   -19.1720 hc         1 7YB       0.040950
     43 H6          -7.3660   -11.2740   -20.6140 hc         1 7YB       0.040950
     44 H7         -13.4570   -12.8450   -16.6900 h1         1 7YB       0.082700
     45 H8          -5.4040   -12.7620   -20.8510 hc         1 7YB       0.040200
     46 H9          -4.8790   -11.0870   -20.7870 hc         1 7YB       0.040200
     47 H10        -12.8740   -14.6980   -14.3310 hc         1 7YB       0.072200
     48 H11        -14.4570   -14.3560   -15.0110 hc         1 7YB       0.072200
     49 H12         -5.7980   -20.9740   -16.2230 ha         1 7YB       0.117500
     50 H13        -12.1470   -15.7720   -16.4080 hc         1 7YB       0.077700
     51 H14        -13.3200   -14.9500   -18.3420 hc         1 7YB       0.061700
     52 H15        -14.8520   -14.8960   -17.4650 hc         1 7YB       0.061700
     53 H16        -15.2000   -16.9820   -18.5500 h1         1 7YB       0.042200
     54 H17        -13.4690   -17.3360   -18.6340 h1         1 7YB       0.042200
     55 H18         -3.4580   -12.5620   -19.3400 hc         1 7YB       0.038700
     56 H19         -4.2820   -11.3260   -18.4000 hc         1 7YB       0.038700
     57 H20         -5.1530   -14.2390   -18.6880 hc         1 7YB       0.040200
     58 H21         -4.4670   -13.5050   -17.2470 hc         1 7YB       0.040200
     59 H22         -6.4330   -12.0190   -17.0200 hc         1 7YB       0.040950
     60 H23         -6.9400   -13.7000   -17.0880 hc         1 7YB       0.040950
     61 H24         -4.9640   -22.6580   -17.8300 ha         1 7YB       0.113000
     62 H25         -8.9360   -17.9440   -20.0120 hc         1 7YB       0.087200
     63 H26         -8.7150   -16.1370   -20.1320 hc         1 7YB       0.087200
     64 H27         -8.7300   -11.1690   -17.8870 hc         1 7YB       0.061700
     65 H28         -9.3850   -11.8740   -19.3510 hc         1 7YB       0.061700
     66 H29         -6.5660   -24.0080   -19.1530 ha         1 7YB       0.112000
     67 H30         -9.0030   -23.6750   -18.8460 ha         1 7YB       0.113000
     68 H31         -9.8290   -22.0080   -17.2240 ha         1 7YB       0.117500
     69 H32         -8.8600   -20.8690   -14.7690 h1         1 7YB       0.072200
     70 H33         -7.5570   -19.7590   -15.2370 h1         1 7YB       0.072200
     71 H34        -12.5680   -12.2470   -13.8450 h1         1 7YB       0.032700
     72 H35        -12.6520   -11.0730   -15.1760 h1         1 7YB       0.032700
     73 H36        -10.9840   -18.2350   -17.2590 hn         1 7YB       0.331500
     74 H37         -9.8040   -14.3770   -19.2770 hn         1 7YB       0.322500
     75 H38        -10.9120   -13.8620   -15.6760 hn         1 7YB       0.339500
     76 H39        -14.6360   -18.5480   -16.6340 hn         1 7YB       0.328500
     77 H40        -14.6060   -11.1210   -13.8860 ho         1 7YB       0.447000
     78 O38        -11.6250   -11.8760   -18.0060 o          1 7YB      -0.606100
@<TRIPOS>BOND
     1     1    12 ar  
     2     1    25 ar  
     3     1    26 1   
     4     2     3 1   
     5     2    21 1   
     6     2    38 1   
     7     2    39 1   
     8     3     4 1   
     9     3    21 1   
    10     3    29 1   
    11     4    30 1   
    12     4    35 2   
    13     5     8 1   
    14     5    19 1   
    15     5    22 1   
    16     5    40 1   
    17     6     7 1   
    18     6    22 1   
    19     6    30 1   
    20     6    41 1   
    21     7    31 1   
    22     7    78 2   
    23     8    10 1   
    24     8    42 1   
    25     8    43 1   
    26     9    11 1   
    27     9    27 1   
    28     9    31 1   
    29     9    44 1   
    30    10    16 1   
    31    10    45 1   
    32    10    46 1   
    33    11    13 1   
    34    11    47 1   
    35    11    48 1   
    36    12    20 ar  
    37    12    49 1   
    38    13    14 1   
    39    13    17 1   
    40    13    50 1   
    41    14    15 1   
    42    14    51 1   
    43    14    52 1   
    44    15    32 1   
    45    15    53 1   
    46    15    54 1   
    47    16    18 1   
    48    16    55 1   
    49    16    56 1   
    50    17    32 1   
    51    17    33 2   
    52    18    19 1   
    53    18    57 1   
    54    18    58 1   
    55    19    59 1   
    56    19    60 1   
    57    20    23 ar  
    58    20    61 1   
    59    21    62 1   
    60    21    63 1   
    61    22    64 1   
    62    22    65 1   
    63    23    24 ar  
    64    23    66 1   
    65    24    25 ar  
    66    24    67 1   
    67    25    68 1   
    68    26    36 1   
    69    26    69 1   
    70    26    70 1   
    71    27    37 1   
    72    27    71 1   
    73    27    72 1   
    74    28    29 1   
    75    28    34 2   
    76    28    36 1   
    77    29    73 1   
    78    30    74 1   
    79    31    75 1   
    80    32    76 1   
    81    37    77 1   
@<TRIPOS>SUBSTRUCTURE
     1 7YB         1 TEMP              0 ****  ****    0 ROOT
