@<TRIPOS>MOLECULE
7YC
   36    37     1     0     0
SMALL
No Charge or Current Charge


@<TRIPOS>ATOM
      1 C10          1.4360    -1.3910    -0.8260 cg         1 7YC       0.284700
      2 N12          3.9020     0.2130    -0.3130 n          1 7YC      -0.415800
      3 C21          6.2060    -0.0170     1.3770 c6         1 7YC       0.149600
      4 C22          6.0250     1.2430     0.5160 c6         1 7YC      -0.141400
      5 O15         -5.6580     0.4020     1.6040 o          1 7YC      -0.403000
      6 O16         -4.0620     1.6940     2.3310 o          1 7YC      -0.403000
      7 C03         -3.5360     0.1910     0.5950 ca         1 7YC      -0.261200
      8 C04         -2.1890     0.6380     0.5700 ca         1 7YC      -0.024000
      9 C02         -3.9280    -0.8240    -0.3180 ca         1 7YC       0.161100
     10 O17         -5.2080    -1.3120    -0.3620 oh         1 7YC      -0.539100
     11 C01         -2.9880    -1.3560    -1.2260 ca         1 7YC       0.098100
     12 O18         -3.3780    -2.3200    -2.1160 oh         1 7YC      -0.521100
     13 C06         -1.6630    -0.9010    -1.2330 ca         1 7YC      -0.055000
     14 C05         -1.2460     0.0920    -0.3240 ca         1 7YC      -0.089800
     15 C07          0.1410     0.6170    -0.3020 cf         1 7YC      -0.038200
     16 C08          1.3520     0.0030    -0.5150 ce         1 7YC      -0.082900
     17 N11          1.5240    -2.5340    -1.0410 n1         1 7YC      -0.443000
     18 C09          2.6300     0.8140    -0.5090 c          1 7YC       0.620300
     19 O13          2.5740     2.0240    -0.6970 o          1 7YC      -0.570100
     20 C23          5.1600     0.9020    -0.7120 c6         1 7YC       0.077000
     21 O20          4.9110    -0.5580     1.6970 os         1 7YC      -0.461000
     22 C19          4.1300    -0.9770     0.5550 c6         1 7YC       0.308000
     23 H1           6.7960    -0.7740     0.8380 h1         1 7YC       0.051200
     24 H2           5.5390     2.0300     1.1080 hc         1 7YC       0.064200
     25 H3          -1.8570     1.4140     1.2590 ha         1 7YC       0.156000
     26 H4          -5.7340    -0.8410     0.3290 ho         1 7YC       0.533000
     27 H5          -4.3330    -2.4890    -1.9440 ho         1 7YC       0.493000
     28 H6          -0.9780    -1.3100    -1.9700 ha         1 7YC       0.154000
     29 H7           0.1740     1.6830    -0.0650 ha         1 7YC       0.203000
     30 H8           5.7260     0.2360    -1.3800 h1         1 7YC       0.067200
     31 H9           3.1810    -1.3850     0.9250 h2         1 7YC       0.068700
     32 H10          6.7340     0.2320     2.3090 h1         1 7YC       0.051200
     33 H11          7.0020     1.6340     0.2000 hc         1 7YC       0.064200
     34 H12          4.9490     1.8180    -1.2830 h1         1 7YC       0.067200
     35 H13          4.6600    -1.7540    -0.0170 h2         1 7YC       0.068700
     36 N14         -4.4880     0.8070     1.5820 no         1 7YC       0.706200
@<TRIPOS>BOND
     1     1    16 1   
     2     1    17 3   
     3     2    18 1   
     4     2    20 1   
     5     2    22 1   
     6     3     4 1   
     7     3    21 1   
     8     3    23 1   
     9     3    32 1   
    10     4    20 1   
    11     4    24 1   
    12     4    33 1   
    13     5    36 1   
    14     6    36 1   
    15     7     8 ar  
    16     7     9 ar  
    17     7    36 1   
    18     8    14 ar  
    19     8    25 1   
    20     9    10 1   
    21     9    11 ar  
    22    10    26 1   
    23    11    12 1   
    24    11    13 ar  
    25    12    27 1   
    26    13    14 ar  
    27    13    28 1   
    28    14    15 1   
    29    15    16 2   
    30    15    29 1   
    31    16    18 1   
    32    18    19 2   
    33    20    30 1   
    34    20    34 1   
    35    21    22 1   
    36    22    31 1   
    37    22    35 1   
@<TRIPOS>SUBSTRUCTURE
     1 7YC         1 TEMP              0 ****  ****    0 ROOT
