@<TRIPOS>MOLECULE
7YC
   36    37     1     0     0
SMALL
abcg2


@<TRIPOS>ATOM
      1 C10          1.5120    -1.1440    -1.6340 cg         1 7YC       0.284700
      2 N12          3.8560     0.1750    -0.6120 n          1 7YC      -0.415800
      3 C21          5.5680    -0.0480     1.5960 c6         1 7YC       0.149600
      4 C22          5.5890     1.2200     0.7580 c6         1 7YC      -0.141400
      5 O15         -5.3420     0.7390     1.4640 o          1 7YC      -0.403000
      6 O16         -3.7740     2.1040     1.9240 o          1 7YC      -0.403000
      7 C03         -3.2730     0.3240     0.5900 ca         1 7YC      -0.261200
      8 C04         -1.9510     0.7440     0.4890 ca         1 7YC      -0.024000
      9 C02         -3.7240    -0.8320    -0.0590 ca         1 7YC       0.161100
     10 O17         -4.9510    -1.3210    -0.0330 oh         1 7YC      -0.539100
     11 C01         -2.7910    -1.5640    -0.8280 ca         1 7YC       0.098100
     12 O18         -3.1680    -2.6730    -1.4760 oh         1 7YC      -0.521100
     13 C06         -1.4860    -1.1460    -0.9210 ca         1 7YC      -0.055000
     14 C05         -1.0420     0.0150    -0.2610 ca         1 7YC      -0.089800
     15 C07          0.3110     0.5310    -0.3030 cf         1 7YC      -0.038200
     16 C08          1.4390     0.0460    -0.8620 ce         1 7YC      -0.082900
     17 N11          1.6210    -2.0880    -2.2880 n1         1 7YC      -0.443000
     18 C09          2.6990     0.8650    -0.7750 c          1 7YC       0.620300
     19 O13          2.6440     2.0710    -0.9190 o          1 7YC      -0.570100
     20 C23          5.1250     0.8960    -0.6560 c6         1 7YC       0.077000
     21 O20          4.2980    -0.6790     1.5280 os         1 7YC      -0.461000
     22 C19          3.9490    -1.0120     0.2170 c6         1 7YC       0.308000
     23 H1           6.3470    -0.7390     1.2440 h1         1 7YC       0.051200
     24 H2           4.9360     1.9780     1.1970 hc         1 7YC       0.064200
     25 H3          -1.6330     1.6420     0.9980 ha         1 7YC       0.156000
     26 H4          -5.5170    -0.7530     0.5250 ho         1 7YC       0.533000
     27 H5          -4.1060    -2.8600    -1.3420 ho         1 7YC       0.493000
     28 H6          -0.8200    -1.7410    -1.5280 ha         1 7YC       0.154000
     29 H7           0.4380     1.4690     0.2260 ha         1 7YC       0.203000
     30 H8           5.8500     0.2420    -1.1490 h1         1 7YC       0.067200
     31 H9           3.0010    -1.5400     0.2670 h2         1 7YC       0.068700
     32 H10          5.7610     0.1650     2.6480 h1         1 7YC       0.051200
     33 H11          6.6010     1.6310     0.7360 hc         1 7YC       0.064200
     34 H12          5.0240     1.7900    -1.2670 h1         1 7YC       0.067200
     35 H13          4.6960    -1.6770    -0.2330 h2         1 7YC       0.068700
     36 N14         -4.1820     1.1130     1.3800 no         1 7YC       0.706200
@<TRIPOS>BOND
     1     1    16 1   
     2     1    17 3   
     3     2    18 1   
     4     2    20 1   
     5     2    22 1   
     6     3     4 1   
     7     3    21 1   
     8     3    23 1   
     9     3    32 1   
    10     4    20 1   
    11     4    24 1   
    12     4    33 1   
    13     5    36 1   
    14     6    36 1   
    15     7     8 ar  
    16     7     9 ar  
    17     7    36 1   
    18     8    14 ar  
    19     8    25 1   
    20     9    10 1   
    21     9    11 ar  
    22    10    26 1   
    23    11    12 1   
    24    11    13 ar  
    25    12    27 1   
    26    13    14 ar  
    27    13    28 1   
    28    14    15 1   
    29    15    16 2   
    30    15    29 1   
    31    16    18 1   
    32    18    19 2   
    33    20    30 1   
    34    20    34 1   
    35    21    22 1   
    36    22    31 1   
    37    22    35 1   
@<TRIPOS>SUBSTRUCTURE
     1 7YC         1 TEMP              0 ****  ****    0 ROOT
