@<TRIPOS>MOLECULE
7YE
   60    65     1     0     0
SMALL
abcg2


@<TRIPOS>ATOM
      1 N3          14.8590     7.0130     2.3070 ns         1 7YE      -0.159000
      2 C4          15.0330     8.3770     2.3460 c          1 7YE       0.672100
      3 C6          15.4090     6.5440    -0.0550 ca         1 7YE      -0.162000
      4 C7          15.4040     5.6290    -1.0970 ca         1 7YE      -0.050000
      5 C8          14.9050     4.3370    -0.9480 ca         1 7YE      -0.162900
      6 C15         13.3340     3.2670    -4.8260 c3         1 7YE       0.308000
      7 C20         15.3070     3.7120    -6.9180 ca         1 7YE      -0.080000
      8 C21         16.1500     3.8660    -8.0370 ca         1 7YE      -0.106000
      9 C22         17.4100     3.3530    -8.0330 ca         1 7YE      -0.065000
     10 C26         18.9080     1.3810    -4.7210 ca         1 7YE      -0.158000
     11 C28         17.0450     2.5240    -5.7490 ca         1 7YE      -0.055000
     12 C32         14.6400     8.2370     4.8220 c5         1 7YE       0.151300
     13 C33         14.6410     9.3510     5.8170 ca         1 7YE      -0.070300
     14 C38         14.4370     9.3160     7.1840 ca         1 7YE      -0.142000
     15 C37         14.4960    10.5280     7.8590 ca         1 7YE       0.340900
     16 N36         14.7350    11.6960     7.2700 nb         1 7YE      -0.658000
     17 C35         14.9280    11.7130     5.9560 ca         1 7YE       0.360900
     18 C34         14.8890    10.5600     5.1930 ca         1 7YE      -0.155300
     19 C39         15.0790    10.3780     3.7230 c5         1 7YE       0.173300
     20 N31         14.9080     8.9370     3.5720 n          1 7YE      -0.440800
     21 O5          15.2810     9.0510     1.3570 o          1 7YE      -0.618100
     22 C2          14.8950     6.1860     1.1910 ca         1 7YE       0.016000
     23 C1          14.3940     4.8850     1.3500 ca         1 7YE      -0.162000
     24 C30         14.4020     3.9840     0.3090 ca         1 7YE      -0.050000
     25 C9          14.9310     3.3700    -2.0540 ce         1 7YE       0.416900
     26 C29         15.3290     3.8220    -3.4260 c6         1 7YE      -0.155700
     27 N10         14.6690     2.1520    -1.7840 n2         1 7YE      -0.439300
     28 N11         14.7010     1.2320    -2.7830 ns         1 7YE      -0.263900
     29 C12         14.7440     1.4380    -4.1170 c          1 7YE       0.545000
     30 O13         14.7020     0.5300    -4.9200 o          1 7YE      -0.494000
     31 C14         14.8100     2.9110    -4.5560 c6         1 7YE      -0.142700
     32 F18         13.1470     4.5670    -5.0670 f          1 7YE      -0.104667
     33 F16         12.5860     2.9730    -3.7530 f          1 7YE      -0.104667
     34 C19         15.7100     3.0480    -5.7870 ca         1 7YE      -0.054300
     35 C27         17.6280     1.8520    -4.6470 ca         1 7YE      -0.073000
     36 C25         19.6360     1.5760    -5.9070 ca         1 7YE       0.353900
     37 N24         19.1490     2.1970    -6.9450 nb         1 7YE      -0.659000
     38 C23         17.8840     2.6750    -6.8880 ca         1 7YE       0.267000
     39 H1          14.5710     6.5480     3.1540 hn         1 7YE       0.150000
     40 H2          15.8180     7.5250    -0.2270 ha         1 7YE       0.132000
     41 H3          15.8220     5.9560    -2.0390 ha         1 7YE       0.123000
     42 H4          14.3290     4.1540    -7.0070 ha         1 7YE       0.124000
     43 H5          15.7750     4.3970    -8.9020 ha         1 7YE       0.123000
     44 H6          18.0700     3.4530    -8.8830 ha         1 7YE       0.136000
     45 H7          19.3600     0.8700    -3.8830 ha         1 7YE       0.126000
     46 H8          13.6740     7.7200     4.8090 h1         1 7YE       0.057200
     47 H9          15.4120     7.4950     5.0530 h1         1 7YE       0.057200
     48 H10         14.2370     8.3960     7.7170 ha         1 7YE       0.129000
     49 H11         14.3430    10.5540     8.9320 h4         1 7YE       0.024100
     50 H12         15.1190    12.6800     5.5010 h4         1 7YE       0.028100
     51 H13         16.0700    10.7040     3.3940 h1         1 7YE       0.072700
     52 H14         14.3410    10.9360     3.1400 h1         1 7YE       0.072700
     53 H15         13.9860     4.5820     2.3070 ha         1 7YE       0.132000
     54 H16         14.0010     2.9930     0.4720 ha         1 7YE       0.123000
     55 H17         16.4210     3.8620    -3.4560 hc         1 7YE       0.088200
     56 H18         15.0130     4.8470    -3.6140 hc         1 7YE       0.088200
     57 H19         14.5700     0.2830    -2.4630 hn         1 7YE       0.357500
     58 H20         17.1010     1.7020    -3.7160 ha         1 7YE       0.117000
     59 H21         20.6530     1.2060    -5.9860 h4         1 7YE       0.022100
     60 F17         12.8160     2.5910    -5.8500 f          1 7YE      -0.104667
@<TRIPOS>BOND
     1     1     2 1   
     2     1    22 1   
     3     1    39 1   
     4     2    20 1   
     5     2    21 2   
     6     3     4 ar  
     7     3    22 ar  
     8     3    40 1   
     9     4     5 ar  
    10     4    41 1   
    11     5    24 ar  
    12     5    25 1   
    13     6    31 1   
    14     6    32 1   
    15     6    33 1   
    16     6    60 1   
    17     7     8 ar  
    18     7    34 ar  
    19     7    42 1   
    20     8     9 ar  
    21     8    43 1   
    22     9    38 ar  
    23     9    44 1   
    24    10    35 ar  
    25    10    36 ar  
    26    10    45 1   
    27    11    34 ar  
    28    11    35 ar  
    29    11    38 ar  
    30    12    13 1   
    31    12    20 1   
    32    12    46 1   
    33    12    47 1   
    34    13    14 ar  
    35    13    18 ar  
    36    14    15 ar  
    37    14    48 1   
    38    15    16 ar  
    39    15    49 1   
    40    16    17 ar  
    41    17    18 ar  
    42    17    50 1   
    43    18    19 1   
    44    19    20 1   
    45    19    51 1   
    46    19    52 1   
    47    22    23 ar  
    48    23    24 ar  
    49    23    53 1   
    50    24    54 1   
    51    25    26 1   
    52    25    27 2   
    53    26    31 1   
    54    26    55 1   
    55    26    56 1   
    56    27    28 1   
    57    28    29 1   
    58    28    57 1   
    59    29    30 2   
    60    29    31 1   
    61    31    34 1   
    62    35    58 1   
    63    36    37 ar  
    64    36    59 1   
    65    37    38 ar  
@<TRIPOS>SUBSTRUCTURE
     1 7YE         1 TEMP              0 ****  ****    0 ROOT
