@<TRIPOS>MOLECULE
7YE
   60    65     1     0     0
SMALL
No Charge or Current Charge


@<TRIPOS>ATOM
      1 N3          14.9310     7.2280     2.2790 ns         1 7YE      -0.159000
      2 C4          15.3660     8.5340     2.4600 c          1 7YE       0.672100
      3 C6          15.8020     6.5810     0.0290 ca         1 7YE      -0.162000
      4 C7          15.8800     5.6280    -1.0020 ca         1 7YE      -0.050000
      5 C8          15.2000     4.3940    -0.9000 ca         1 7YE      -0.162900
      6 C15         13.3170     3.2410    -4.5970 c3         1 7YE       0.308000
      7 C20         15.0790     3.5300    -7.0010 ca         1 7YE      -0.080000
      8 C21         15.7570     3.5990    -8.2220 ca         1 7YE      -0.106000
      9 C22         17.0480     3.0840    -8.3370 ca         1 7YE      -0.065000
     10 C26         19.0210     1.3620    -5.1120 ca         1 7YE      -0.158000
     11 C28         17.0060     2.4310    -5.9820 ca         1 7YE      -0.055000
     12 C32         14.3100     8.3740     4.7920 c5         1 7YE       0.151300
     13 C33         14.2760     9.4380     5.8540 ca         1 7YE      -0.070300
     14 C38         13.7070     9.3750     7.1340 ca         1 7YE      -0.142000
     15 C37         13.8030    10.5150     7.9570 ca         1 7YE       0.340900
     16 N36         14.4170    11.6640     7.5660 nb         1 7YE      -0.658000
     17 C35         14.9600    11.7020     6.3220 ca         1 7YE       0.360900
     18 C34         14.8980    10.6000     5.4550 ca         1 7YE      -0.155300
     19 C39         15.4510    10.5000     4.0610 c5         1 7YE       0.173300
     20 N31         15.0540     9.0990     3.7080 n          1 7YE      -0.440800
     21 O5          15.9750     9.1810     1.6180 o          1 7YE      -0.618100
     22 C2          15.0530     6.3170     1.1950 ca         1 7YE       0.016000
     23 C1          14.4010     5.0770     1.3100 ca         1 7YE      -0.162000
     24 C30         14.4780     4.1230     0.2820 ca         1 7YE      -0.050000
     25 C9          15.3130     3.3580    -1.9800 ce         1 7YE       0.416900
     26 C29         15.5300     3.8140    -3.4260 c6         1 7YE      -0.155700
     27 N10         15.1830     2.0980    -1.6830 n2         1 7YE      -0.439300
     28 N11         15.0580     1.1260    -2.6710 ns         1 7YE      -0.263900
     29 C12         14.8070     1.3810    -4.0150 c          1 7YE       0.545000
     30 O13         14.5830     0.4570    -4.7820 o          1 7YE      -0.494000
     31 C14         14.8570     2.8660    -4.4930 c6         1 7YE      -0.142700
     32 F18         13.1180     4.5480    -4.8930 f          1 7YE      -0.104667
     33 F16         12.6650     3.0240    -3.4310 f          1 7YE      -0.104667
     34 C19         15.6660     2.9400    -5.8500 ca         1 7YE      -0.054300
     35 C27         17.7200     1.8430    -4.9040 ca         1 7YE      -0.073000
     36 C25         19.5960     1.4700    -6.3800 ca         1 7YE       0.353900
     37 N24         18.9480     2.0300    -7.4210 nb         1 7YE      -0.659000
     38 C23         17.6900     2.5010    -7.2370 ca         1 7YE       0.267000
     39 H1          14.4310     6.8490     3.0700 hn         1 7YE       0.150000
     40 H2          16.3420     7.5130    -0.0960 ha         1 7YE       0.132000
     41 H3          16.4840     5.8580    -1.8770 ha         1 7YE       0.123000
     42 H4          14.0820     3.9520    -6.9900 ha         1 7YE       0.124000
     43 H5          15.2760     4.0540    -9.0850 ha         1 7YE       0.123000
     44 H6          17.5650     3.1410    -9.2920 ha         1 7YE       0.136000
     45 H7          19.5820     0.9100    -4.2990 ha         1 7YE       0.126000
     46 H8          13.2970     8.0890     4.4780 h1         1 7YE       0.057200
     47 H9          14.8520     7.4820     5.1370 h1         1 7YE       0.057200
     48 H10         13.2070     8.4780     7.4890 ha         1 7YE       0.129000
     49 H11         13.3770    10.5110     8.9590 h4         1 7YE       0.024100
     50 H12         15.4480    12.6290     6.0230 h4         1 7YE       0.028100
     51 H13         16.5410    10.6320     4.0460 h1         1 7YE       0.072700
     52 H14         14.9900    11.2370     3.3880 h1         1 7YE       0.072700
     53 H15         13.8280     4.8460     2.2050 ha         1 7YE       0.132000
     54 H16         13.9600     3.1730     0.4060 ha         1 7YE       0.123000
     55 H17         16.6120     3.8710    -3.5860 hc         1 7YE       0.088200
     56 H18         15.1840     4.8480    -3.5540 hc         1 7YE       0.088200
     57 H19         15.0510     0.1380    -2.4230 hn         1 7YE       0.357500
     58 H20         17.3130     1.7550    -3.9060 ha         1 7YE       0.117000
     59 H21         20.6040     1.1050    -6.5700 h4         1 7YE       0.022100
     60 F17         12.6650     2.5160    -5.5370 f          1 7YE      -0.104667
@<TRIPOS>BOND
     1     1     2 1   
     2     1    22 1   
     3     1    39 1   
     4     2    20 1   
     5     2    21 2   
     6     3     4 ar  
     7     3    22 ar  
     8     3    40 1   
     9     4     5 ar  
    10     4    41 1   
    11     5    24 ar  
    12     5    25 1   
    13     6    31 1   
    14     6    32 1   
    15     6    33 1   
    16     6    60 1   
    17     7     8 ar  
    18     7    34 ar  
    19     7    42 1   
    20     8     9 ar  
    21     8    43 1   
    22     9    38 ar  
    23     9    44 1   
    24    10    35 ar  
    25    10    36 ar  
    26    10    45 1   
    27    11    34 ar  
    28    11    35 ar  
    29    11    38 ar  
    30    12    13 1   
    31    12    20 1   
    32    12    46 1   
    33    12    47 1   
    34    13    14 ar  
    35    13    18 ar  
    36    14    15 ar  
    37    14    48 1   
    38    15    16 ar  
    39    15    49 1   
    40    16    17 ar  
    41    17    18 ar  
    42    17    50 1   
    43    18    19 1   
    44    19    20 1   
    45    19    51 1   
    46    19    52 1   
    47    22    23 ar  
    48    23    24 ar  
    49    23    53 1   
    50    24    54 1   
    51    25    26 1   
    52    25    27 2   
    53    26    31 1   
    54    26    55 1   
    55    26    56 1   
    56    27    28 1   
    57    28    29 1   
    58    28    57 1   
    59    29    30 2   
    60    29    31 1   
    61    31    34 1   
    62    35    58 1   
    63    36    37 ar  
    64    36    59 1   
    65    37    38 ar  
@<TRIPOS>SUBSTRUCTURE
     1 7YE         1 TEMP              0 ****  ****    0 ROOT
