@<TRIPOS>MOLECULE
7YF
   43    43     1     0     0
SMALL
No Charge or Current Charge


@<TRIPOS>ATOM
      1 C5          -3.0340     0.6910     0.6990 c          1 7YF       0.587100
      2 O2          -3.3730     0.5950     1.8730 o          1 7YF      -0.583100
      3 C4          -3.7420     1.4900    -0.4500 c5         1 7YF       0.045900
      4 N1          -4.9070     2.2210     0.1320 ns         1 7YF      -0.499900
      5 C3          -4.4630     0.5940    -1.4770 c2         1 7YF      -0.206200
      6 C2          -5.7810     0.8510    -1.4220 ce         1 7YF      -0.250200
      7 C1          -6.0960     1.8600    -0.4270 c          1 7YF       0.560200
      8 O1          -7.1920     2.3030    -0.1300 o          1 7YF      -0.529000
      9 N2          -1.9180     0.0630     0.1900 ns         1 7YF      -0.497900
     10 C6          -1.0040    -0.7920     0.9810 c3         1 7YF       0.019000
     11 C7           0.1480    -1.3610     0.1220 c          1 7YF       0.595100
     12 O3           0.2700    -1.1240    -1.0740 o          1 7YF      -0.606100
     13 N3           1.0350    -2.1680     0.8060 ns         1 7YF      -0.485900
     14 C8           2.2310    -2.8210     0.2150 c3         1 7YF      -0.016300
     15 C9           2.3900    -4.2690     0.7480 c          1 7YF       0.556900
     16 O4           1.7300    -4.7390     1.6720 o          1 7YF      -0.495100
     17 C10          3.5250    -1.9960     0.4470 c3         1 7YF      -0.078400
     18 C11          3.5100    -0.5840    -0.1880 c3         1 7YF      -0.091400
     19 C12          4.8420     0.1710    -0.0020 c3         1 7YF       0.225800
     20 N4           4.7670     1.5050    -0.6150 nu         1 7YF      -0.905400
     21 C13          5.7610     2.3760    -0.6090 c2         1 7YF       0.797100
     22 N6           5.3400     3.4130    -1.2810 nv         1 7YF      -1.071200
     23 N5           6.8900     2.1790    -0.1220 n2         1 7YF      -0.896100
     24 H17         -3.0150     2.1660    -0.9200 h1         1 7YF       0.082700
     25 H18         -4.8910     2.8890     0.8940 hn         1 7YF       0.339500
     26 H19         -3.9880    -0.1290    -2.1460 ha         1 7YF       0.208000
     27 H20         -6.5620     0.3870    -2.0220 ha         1 7YF       0.221000
     28 H16         -1.7190     0.1950    -0.7960 hn         1 7YF       0.345500
     29 H14         -0.5670    -0.2070     1.8000 h1         1 7YF       0.070700
     30 H15         -1.5640    -1.6340     1.4090 h1         1 7YF       0.070700
     31 H5           3.1580    -4.8830     0.2280 h4         1 7YF      -0.003800
     32 H13          0.8370    -2.3300     1.7880 hn         1 7YF       0.322500
     33 H6           2.0820    -2.9250    -0.8680 h1         1 7YF       0.099700
     34 H1           3.7040    -1.9030     1.5260 hc         1 7YF       0.055200
     35 H2           4.3760    -2.5540     0.0350 hc         1 7YF       0.055200
     36 H7           3.2910    -0.6740    -1.2590 hc         1 7YF       0.049700
     37 H8           2.7040     0.0090     0.2600 hc         1 7YF       0.049700
     38 H3           5.0570     0.2620     1.0720 h1         1 7YF       0.052700
     39 H4           5.6540    -0.4110    -0.4610 h1         1 7YF       0.052700
     40 H9           4.2030     1.5840    -1.4500 hn         1 7YF       0.463000
     41 H10          4.3760     3.6140    -1.0580 hn         1 7YF       0.454000
     42 H11          5.9450     4.2190    -1.1980 hn         1 7YF       0.454000
     43 H12          7.4620     3.0070    -0.3190 hn         1 7YF       0.381400
@<TRIPOS>BOND
     1     1     2 2   
     2     1     3 1   
     3     1     9 1   
     4     3     4 1   
     5     3     5 1   
     6     3    24 1   
     7     4     7 1   
     8     4    25 1   
     9     5     6 2   
    10     5    26 1   
    11     6     7 1   
    12     6    27 1   
    13     7     8 2   
    14     9    10 1   
    15     9    28 1   
    16    10    11 1   
    17    10    29 1   
    18    10    30 1   
    19    11    12 2   
    20    11    13 1   
    21    13    14 1   
    22    13    32 1   
    23    14    15 1   
    24    14    17 1   
    25    14    33 1   
    26    15    16 2   
    27    15    31 1   
    28    17    18 1   
    29    17    34 1   
    30    17    35 1   
    31    18    19 1   
    32    18    36 1   
    33    18    37 1   
    34    19    20 1   
    35    19    38 1   
    36    19    39 1   
    37    20    21 1   
    38    20    40 1   
    39    21    22 1   
    40    21    23 2   
    41    22    41 1   
    42    22    42 1   
    43    23    43 1   
@<TRIPOS>SUBSTRUCTURE
     1 7YF         1 TEMP              0 ****  ****    0 ROOT
