@<TRIPOS>MOLECULE
7YF
   43    43     1     0     0
SMALL
bcc


@<TRIPOS>ATOM
      1 C5          -3.3640     0.6240     0.1520 c          1 7YF       0.654100
      2 O2          -3.3930     1.1700     1.2400 o          1 7YF      -0.583100
      3 C4          -4.5760     0.6360    -0.7920 c5         1 7YF       0.045900
      4 N1          -5.3990     1.7880    -0.6030 ns         1 7YF      -0.566900
      5 C3          -5.5010    -0.4830    -0.4040 c2         1 7YF      -0.156200
      6 C2          -6.6570     0.0140     0.0250 ce         1 7YF      -0.200200
      7 C1          -6.6070     1.4950    -0.0620 c          1 7YF       0.702700
      8 O1          -7.4680     2.2920     0.2670 o          1 7YF      -0.604500
      9 N2          -2.3220    -0.0690    -0.3120 ns         1 7YF      -0.564900
     10 C6          -1.1240    -0.2630     0.4550 c3         1 7YF       0.019000
     11 C7          -0.1310    -1.0800    -0.3530 c          1 7YF       0.662100
     12 O3          -0.4050    -1.5230    -1.4570 o          1 7YF      -0.606100
     13 N3           1.0590    -1.2450     0.2410 ns         1 7YF      -0.552900
     14 C8           2.0990    -2.0670    -0.3130 c3         1 7YF      -0.016300
     15 C9           1.8750    -3.5350    -0.0240 c          1 7YF       0.556900
     16 O4           0.9290    -3.9760     0.5710 o          1 7YF      -0.495100
     17 C10          3.4800    -1.6370     0.1860 c3         1 7YF      -0.078400
     18 C11          3.8520    -0.2300    -0.2610 c3         1 7YF      -0.091400
     19 C12          5.2490     0.1550     0.2010 c3         1 7YF       0.225800
     20 N4           5.5640     1.4960    -0.2340 nu         1 7YF      -0.850200
     21 C13          6.8180     2.0110    -0.0580 c2         1 7YF       0.797100
     22 N6           6.9400     3.3310    -0.4370 nv         1 7YF      -0.960800
     23 N5           7.7800     1.2620     0.3440 n2         1 7YF      -0.896100
     24 H17         -4.2480     0.5300    -1.8320 h1         1 7YF       0.082700
     25 H18         -5.0510     2.7290    -0.6930 hn         1 7YF       0.339500
     26 H19         -5.2090    -1.5200    -0.4710 ha         1 7YF       0.158000
     27 H20         -7.5160    -0.5310     0.3850 ha         1 7YF       0.171000
     28 H16         -2.3490    -0.4820    -1.2330 hn         1 7YF       0.345500
     29 H14         -0.6690     0.6950     0.7250 h1         1 7YF       0.070700
     30 H15         -1.3370    -0.7860     1.3930 h1         1 7YF       0.070700
     31 H5           2.6680    -4.1950    -0.4210 h4         1 7YF      -0.003800
     32 H13          1.1760    -0.9220     1.1900 hn         1 7YF       0.322500
     33 H6           2.0920    -1.9710    -1.4050 h1         1 7YF       0.099700
     34 H1           3.5150    -1.7140     1.2770 hc         1 7YF       0.055200
     35 H2           4.2160    -2.3490    -0.1980 hc         1 7YF       0.055200
     36 H7           3.8000    -0.1670    -1.3520 hc         1 7YF       0.049700
     37 H8           3.1260     0.4880     0.1320 hc         1 7YF       0.049700
     38 H3           5.3230     0.0520     1.2910 h1         1 7YF       0.052700
     39 H4           5.9820    -0.5310    -0.2250 h1         1 7YF       0.052700
     40 H9           4.8010     2.1520    -0.1820 hn         1 7YF       0.407800
     41 H10          6.0980     3.8840    -0.4800 hn         1 7YF       0.398800
     42 H11          7.7020     3.8340    -0.0120 hn         1 7YF       0.398800
     43 H12          8.6520     1.7780     0.3420 hn         1 7YF       0.381400
@<TRIPOS>BOND
     1     1     2 2   
     2     1     3 1   
     3     1     9 1   
     4     3     4 1   
     5     3     5 1   
     6     3    24 1   
     7     4     7 1   
     8     4    25 1   
     9     5     6 2   
    10     5    26 1   
    11     6     7 1   
    12     6    27 1   
    13     7     8 2   
    14     9    10 1   
    15     9    28 1   
    16    10    11 1   
    17    10    29 1   
    18    10    30 1   
    19    11    12 2   
    20    11    13 1   
    21    13    14 1   
    22    13    32 1   
    23    14    15 1   
    24    14    17 1   
    25    14    33 1   
    26    15    16 2   
    27    15    31 1   
    28    17    18 1   
    29    17    34 1   
    30    17    35 1   
    31    18    19 1   
    32    18    36 1   
    33    18    37 1   
    34    19    20 1   
    35    19    38 1   
    36    19    39 1   
    37    20    21 1   
    38    20    40 1   
    39    21    22 1   
    40    21    23 2   
    41    22    41 1   
    42    22    42 1   
    43    23    43 1   
@<TRIPOS>SUBSTRUCTURE
     1 7YF         1 TEMP              0 ****  ****    0 ROOT
