@<TRIPOS>MOLECULE
7YG
   54    56     1     0     0
SMALL
abcg2


@<TRIPOS>ATOM
      1 C1           4.4490     4.2510    -0.1700 c3         1 7YG       0.149100
      2 N2           4.5810     3.3870    -1.3260 n3         1 7YG      -0.719600
      3 C3           5.2340     4.0880    -2.4120 c3         1 7YG       0.149100
      4 C4           5.2660     2.1490    -1.0200 c3         1 7YG       0.162800
      5 C5           4.4180     1.2260    -0.1540 c3         1 7YG       0.194800
      6 N6           5.1220    -0.0430     0.0070 n7         1 7YG      -0.865300
      7 S7           4.6030    -1.1070     1.1490 sy         1 7YG       1.151600
      8 O8           5.4250    -2.2950     0.9940 o          1 7YG      -0.532000
      9 O9           4.5770    -0.3960     2.4170 o          1 7YG      -0.532000
     10 C10          2.9330    -1.5280     0.7350 ca         1 7YG      -0.309500
     11 C11          2.6930    -2.5710    -0.1500 ca         1 7YG      -0.015000
     12 C12          1.3900    -2.8730    -0.5060 ca         1 7YG      -0.117500
     13 C13          0.3180    -2.1420     0.0120 cp         1 7YG      -0.064500
     14 C14          0.5850    -1.0940     0.8940 ca         1 7YG      -0.117500
     15 C15          1.8830    -0.7870     1.2610 ca         1 7YG      -0.015000
     16 C16         -1.0690    -2.4600    -0.3550 cp         1 7YG       0.259500
     17 C17         -1.4780    -3.7280    -0.7870 ca         1 7YG       0.405900
     18 N18         -2.7210    -4.0050    -1.0980 nb         1 7YG      -0.745000
     19 C19         -3.6470    -3.0380    -1.0010 ca         1 7YG       0.645900
     20 C20         -3.2450    -1.7500    -0.5490 ca         1 7YG       0.150500
     21 N21         -1.9860    -1.5120    -0.2450 nb         1 7YG      -0.611000
     22 C22         -4.2000    -0.6160    -0.4050 c          1 7YG       0.537600
     23 O23         -5.3960    -0.7410    -0.6290 o          1 7YG      -0.619100
     24 N24         -3.6110     0.5350    -0.0130 ns         1 7YG      -0.118000
     25 C25         -4.1800     1.7860     0.1920 ca         1 7YG      -0.071000
     26 C26         -5.5390     2.0840     0.1110 ca         1 7YG      -0.100000
     27 C27         -5.9380     3.3910     0.3450 ca         1 7YG      -0.137000
     28 C28         -4.9910     4.3540     0.6490 ca         1 7YG       0.306900
     29 N29         -3.6940     4.0740     0.7300 nb         1 7YG      -0.643000
     30 C30         -3.3070     2.8330     0.5080 ca         1 7YG       0.290900
     31 N31         -4.8930    -3.3580    -1.3410 nv         1 7YG      -1.047900
     32 H11C         3.9080     5.1560    -0.4500 h1         1 7YG       0.033367
     33 H12C         3.8790     3.7670     0.6220 h1         1 7YG       0.033367
     34 H13C         5.4190     4.5580     0.2510 h1         1 7YG       0.033367
     35 H31C         6.2630     4.4000    -2.1720 h1         1 7YG       0.033367
     36 H32C         5.2760     3.4550    -3.2990 h1         1 7YG       0.033367
     37 H33C         4.6690     4.9840    -2.6680 h1         1 7YG       0.033367
     38 H41C         5.4730     1.6370    -1.9650 h1         1 7YG       0.041200
     39 H42C         6.2400     2.3140    -0.5300 h1         1 7YG       0.041200
     40 H51C         4.2640     1.6570     0.8340 h1         1 7YG       0.059700
     41 H52C         3.4350     1.0920    -0.6190 h1         1 7YG       0.059700
     42 H6           5.3190    -0.5120    -0.8720 hn         1 7YG       0.477000
     43 H11          3.5060    -3.1510    -0.5660 ha         1 7YG       0.137000
     44 H15          2.0610     0.0170     1.9620 ha         1 7YG       0.137000
     45 H12          1.2220    -3.6780    -1.2080 ha         1 7YG       0.123000
     46 H14         -0.2300    -0.5220     1.3140 ha         1 7YG       0.123000
     47 H17         -0.7710    -4.5460    -0.8620 h4         1 7YG       0.034100
     48 H311        -5.0960    -4.3010    -1.6280 hn         1 7YG       0.522000
     49 H312        -5.6410    -2.6930    -1.2490 hn         1 7YG       0.522000
     50 H24         -2.6090     0.4650     0.1180 hn         1 7YG       0.184000
     51 H26         -6.2720     1.3290    -0.1230 ha         1 7YG       0.150000
     52 H30         -2.2400     2.6360     0.5800 h4         1 7YG       0.016100
     53 H27         -6.9850     3.6550     0.2910 ha         1 7YG       0.125000
     54 H28         -5.2830     5.3810     0.8330 h4         1 7YG       0.022100
@<TRIPOS>BOND
     1     1     2 1   
     2     1    32 1   
     3     1    33 1   
     4     1    34 1   
     5     2     3 1   
     6     2     4 1   
     7     3    35 1   
     8     3    36 1   
     9     3    37 1   
    10     4     5 1   
    11     4    38 1   
    12     4    39 1   
    13     5     6 1   
    14     5    40 1   
    15     5    41 1   
    16     6     7 1   
    17     6    42 1   
    18     7     8 2   
    19     7     9 2   
    20     7    10 1   
    21    10    11 ar  
    22    10    15 ar  
    23    11    12 ar  
    24    11    43 1   
    25    12    13 ar  
    26    12    45 1   
    27    13    14 ar  
    28    13    16 1   
    29    14    15 ar  
    30    14    46 1   
    31    15    44 1   
    32    16    17 ar  
    33    16    21 ar  
    34    17    18 ar  
    35    17    47 1   
    36    18    19 ar  
    37    19    20 ar  
    38    19    31 1   
    39    20    21 ar  
    40    20    22 1   
    41    22    23 2   
    42    22    24 1   
    43    24    25 1   
    44    24    50 1   
    45    25    26 ar  
    46    25    30 ar  
    47    26    27 ar  
    48    26    51 1   
    49    27    28 ar  
    50    27    53 1   
    51    28    29 ar  
    52    28    54 1   
    53    29    30 ar  
    54    30    52 1   
    55    31    48 1   
    56    31    49 1   
@<TRIPOS>SUBSTRUCTURE
     1 7YG         1 TEMP              0 ****  ****    0 ROOT
