@<TRIPOS>MOLECULE
7YG
   54    56     1     0     0
SMALL
No Charge or Current Charge


@<TRIPOS>ATOM
      1 C1           4.5910     1.7020    -3.1010 c3         1 7YG       0.149100
      2 N2           5.9050     1.6780    -2.4130 n3         1 7YG      -0.719600
      3 C3           6.8420     2.6750    -2.9780 c3         1 7YG       0.149100
      4 C4           5.8070     1.7790    -0.9280 c3         1 7YG       0.162800
      5 C5           5.0240     0.6340    -0.2280 c3         1 7YG       0.194800
      6 N6           5.0800     0.7670     1.2460 n7         1 7YG      -0.865300
      7 S7           4.3880    -0.4390     2.1670 sy         1 7YG       1.151600
      8 O8           5.2630    -1.6030     2.0170 o          1 7YG      -0.532000
      9 O9           4.1110     0.1820     3.4640 o          1 7YG      -0.532000
     10 C10          2.8310    -0.7100     1.3030 ca         1 7YG      -0.309500
     11 C11          2.6700    -1.8160     0.4460 ca         1 7YG      -0.015000
     12 C12          1.4560    -2.0100    -0.2350 ca         1 7YG      -0.117500
     13 C13          0.3660    -1.1080    -0.0860 cp         1 7YG      -0.064500
     14 C14          0.5570    -0.0030     0.7890 ca         1 7YG      -0.117500
     15 C15          1.7680     0.1960     1.4720 ca         1 7YG      -0.015000
     16 C16         -0.9380    -1.3140    -0.8170 cp         1 7YG       0.259500
     17 C17         -1.0610    -2.1620    -1.9720 ca         1 7YG       0.405900
     18 N18         -2.2320    -2.3520    -2.6460 nb         1 7YG      -0.745000
     19 C19         -3.2790    -1.6840    -2.1580 ca         1 7YG       0.645900
     20 C20         -3.2160    -0.8300    -1.0090 ca         1 7YG       0.150500
     21 N21         -2.0270    -0.6450    -0.3410 nb         1 7YG      -0.611000
     22 C22         -4.4670    -0.1310    -0.4980 c          1 7YG       0.537600
     23 O23         -5.5830    -0.3200    -0.9790 o          1 7YG      -0.619100
     24 N24         -4.2360     0.7260     0.5740 ns         1 7YG      -0.118000
     25 C25         -5.0960     1.5630     1.3430 ca         1 7YG      -0.071000
     26 C26         -6.4790     1.7110     1.0960 ca         1 7YG      -0.100000
     27 C27         -7.2190     2.5700     1.9270 ca         1 7YG      -0.137000
     28 C28         -6.5690     3.2520     2.9690 ca         1 7YG       0.306900
     29 N29         -5.2460     3.1210     3.2160 nb         1 7YG      -0.643000
     30 C30         -4.5340     2.2930     2.4150 ca         1 7YG       0.290900
     31 N31         -4.3510    -1.9520    -2.9260 nv         1 7YG      -1.047900
     32 H11C         4.7230     1.6200    -4.1880 h1         1 7YG       0.033367
     33 H12C         3.9590     0.8630    -2.7830 h1         1 7YG       0.033367
     34 H13C         4.0560     2.6380    -2.8920 h1         1 7YG       0.033367
     35 H31C         6.4770     3.6970    -2.8090 h1         1 7YG       0.033367
     36 H32C         7.8340     2.5830    -2.5160 h1         1 7YG       0.033367
     37 H33C         6.9610     2.5270    -4.0600 h1         1 7YG       0.033367
     38 H41C         6.8200     1.7880    -0.5050 h1         1 7YG       0.041200
     39 H42C         5.3390     2.7340    -0.6510 h1         1 7YG       0.041200
     40 H51C         3.9830     0.6670    -0.5750 h1         1 7YG       0.059700
     41 H52C         5.4510    -0.3260    -0.5480 h1         1 7YG       0.059700
     42 H6           6.0490     0.6970     1.5520 hn         1 7YG       0.477000
     43 H11          3.4810    -2.5290     0.3030 ha         1 7YG       0.137000
     44 H15          1.8790     1.0600     2.1260 ha         1 7YG       0.137000
     45 H12          1.3680    -2.8830    -0.8750 ha         1 7YG       0.123000
     46 H14         -0.2410     0.7200     0.9380 ha         1 7YG       0.123000
     47 H17         -0.1990    -2.6890    -2.3740 h4         1 7YG       0.034100
     48 H311        -4.2860    -2.7990    -3.4780 hn         1 7YG       0.522000
     49 H312        -5.2620    -1.7120    -2.5410 hn         1 7YG       0.522000
     50 H24         -3.2640     0.7550     0.8580 hn         1 7YG       0.184000
     51 H26         -6.9850     1.1880     0.2890 ha         1 7YG       0.150000
     52 H30         -3.4720     2.2100     2.6410 h4         1 7YG       0.016100
     53 H27         -8.2850     2.7110     1.7700 ha         1 7YG       0.125000
     54 H28         -7.1230     3.9220     3.6250 h4         1 7YG       0.022100
@<TRIPOS>BOND
     1     1     2 1   
     2     1    32 1   
     3     1    33 1   
     4     1    34 1   
     5     2     3 1   
     6     2     4 1   
     7     3    35 1   
     8     3    36 1   
     9     3    37 1   
    10     4     5 1   
    11     4    38 1   
    12     4    39 1   
    13     5     6 1   
    14     5    40 1   
    15     5    41 1   
    16     6     7 1   
    17     6    42 1   
    18     7     8 2   
    19     7     9 2   
    20     7    10 1   
    21    10    11 ar  
    22    10    15 ar  
    23    11    12 ar  
    24    11    43 1   
    25    12    13 ar  
    26    12    45 1   
    27    13    14 ar  
    28    13    16 1   
    29    14    15 ar  
    30    14    46 1   
    31    15    44 1   
    32    16    17 ar  
    33    16    21 ar  
    34    17    18 ar  
    35    17    47 1   
    36    18    19 ar  
    37    19    20 ar  
    38    19    31 1   
    39    20    21 ar  
    40    20    22 1   
    41    22    23 2   
    42    22    24 1   
    43    24    25 1   
    44    24    50 1   
    45    25    26 ar  
    46    25    30 ar  
    47    26    27 ar  
    48    26    51 1   
    49    27    28 ar  
    50    27    53 1   
    51    28    29 ar  
    52    28    54 1   
    53    29    30 ar  
    54    30    52 1   
    55    31    48 1   
    56    31    49 1   
@<TRIPOS>SUBSTRUCTURE
     1 7YG         1 TEMP              0 ****  ****    0 ROOT
