@<TRIPOS>MOLECULE
7YI
   72    75     1     0     0
SMALL
bcc


@<TRIPOS>ATOM
      1 C1          21.0270    -5.4560    11.7490 ca         1 7YI      -0.120000
      2 C11         15.7100    -2.6020     7.9990 c3         1 7YI       0.091700
      3 C12         15.7200    -1.0930     7.7480 c          1 7YI       0.663100
      4 C14         16.0530     0.6360     6.0780 c3         1 7YI       0.038700
      5 C15         14.5690     0.9320     5.8380 c          1 7YI       0.654100
      6 C17         12.8360     2.6830     6.0610 c3         1 7YI       0.104700
      7 C19         12.2610     3.0000     7.4410 c3         1 7YI      -0.070400
      8 C2          19.7020    -5.8580    11.8600 ca         1 7YI      -0.133000
      9 C20         12.2180     1.7900     8.3590 c5         1 7YI      -0.158700
     10 C21         11.3210     0.6390     7.9030 c5         1 7YI      -0.092400
     11 C22         10.9150    -0.0430     9.2110 c5         1 7YI       0.101000
     12 C24         11.6900     2.1080     9.7500 c          1 7YI       0.709500
     13 C25         12.8540     3.8980     5.1380 c3         1 7YI       0.128400
     14 C28         19.1030     1.8100     5.5600 cx         1 7YI      -0.128400
     15 C29         19.2470     1.4940     4.1000 cx         1 7YI      -0.128400
     16 C3          18.6960    -4.9150    12.0070 ca         1 7YI      -0.104000
     17 C30         14.3960    -3.1490     7.4950 cx         1 7YI      -0.154700
     18 C31         14.2880    -4.6050     7.1610 cx         1 7YI      -0.118400
     19 C32         14.2670    -3.5790     6.0700 cx         1 7YI      -0.118400
     20 C34         16.8300     0.8380     4.7770 c3         1 7YI      -0.055400
     21 C4          19.0010    -3.5560    12.0350 ca         1 7YI      -0.122300
     22 C5          20.3280    -3.1600    11.9170 ca         1 7YI      -0.104000
     23 C6          21.3390    -4.1040    11.7810 ca         1 7YI      -0.133000
     24 C7          17.9160    -2.5320    12.2290 c3         1 7YI       0.207700
     25 C8          18.3190     0.6870     4.9540 cx         1 7YI      -0.127700
     26 C9          16.9200    -2.4990    10.0930 c          1 7YI       0.760100
     27 N10         15.8360    -2.8920     9.4010 ns         1 7YI      -0.554900
     28 N13         16.2140    -0.7140     6.5590 ns         1 7YI      -0.541900
     29 N16         14.1860     2.1720     6.1780 ns         1 7YI      -0.566900
     30 N23         10.9540     1.0570    10.1510 ns         1 7YI      -0.581900
     31 O26         11.9100     3.1200    10.3940 o          1 7YI      -0.636500
     32 O29         17.8910    -1.9680     9.5990 o          1 7YI      -0.584000
     33 O33         15.2560    -0.3050     8.5560 o          1 7YI      -0.602100
     34 O38         13.8350     0.0960     5.3350 o          1 7YI      -0.609100
     35 O8          16.7850    -2.7730    11.3970 os         1 7YI      -0.430900
     36 H1          21.8120    -6.1930    11.6370 ha         1 7YI       0.129000
     37 H2          16.5280    -3.0740     7.4420 h1         1 7YI       0.070700
     38 H3          16.4530     1.3270     6.8260 h1         1 7YI       0.081700
     39 H4          12.2400     1.9020     5.5860 h1         1 7YI       0.092700
     40 H5          12.8630     3.7890     7.9030 hc         1 7YI       0.065200
     41 H6          11.2520     3.4020     7.3210 hc         1 7YI       0.065200
     42 H7          19.4520    -6.9110    11.8370 ha         1 7YI       0.130000
     43 H8          13.2370     1.4110     8.5080 hc         1 7YI       0.095700
     44 H9          10.4340     1.0350     7.4000 hc         1 7YI       0.062700
     45 H10         11.8130    -0.0470     7.2170 hc         1 7YI       0.062700
     46 H11          9.9220    -0.4880     9.1650 h1         1 7YI       0.041700
     47 H12         11.6240    -0.8280     9.4890 h1         1 7YI       0.041700
     48 H13         13.3230     3.6050     4.1910 h1         1 7YI       0.022200
     49 H14         13.4890     4.6760     5.5850 h1         1 7YI       0.022200
     50 H16         18.5670     2.7110     5.8320 hc         1 7YI       0.072200
     51 H17         20.1670     1.0320     3.7640 hc         1 7YI       0.072200
     52 H18         18.8090     2.1820     3.3870 hc         1 7YI       0.072200
     53 H19         17.6680    -5.2450    12.1010 ha         1 7YI       0.134000
     54 H20         13.5210    -2.6860     7.9420 hc         1 7YI       0.095700
     55 H21         13.3670    -5.1160     7.4100 hc         1 7YI       0.077450
     56 H22         15.1790    -5.2120     7.2640 hc         1 7YI       0.077450
     57 H23         15.1390    -3.5040     5.4320 hc         1 7YI       0.077450
     58 H24         13.3310    -3.3750     5.5680 hc         1 7YI       0.077450
     59 H25         16.6080     1.8410     4.4030 hc         1 7YI       0.057200
     60 H26         16.4640     0.1370     4.0210 hc         1 7YI       0.057200
     61 H27         20.5760    -2.1060    11.9280 ha         1 7YI       0.134000
     62 H28         22.3680    -3.7800    11.6900 ha         1 7YI       0.130000
     63 H29         18.3050    -1.5230    12.0810 h1         1 7YI       0.068700
     64 H30         17.5210    -2.5870    13.2440 h1         1 7YI       0.068700
     65 H31         18.6580    -0.3140     5.1990 hc         1 7YI       0.083700
     66 H32         15.0530    -3.2990     9.8870 hn         1 7YI       0.336500
     67 H33         16.5040    -1.4230     5.9020 hn         1 7YI       0.322500
     68 H34         14.8600     2.7630     6.6430 hn         1 7YI       0.315500
     69 H35         10.6030     0.9800    11.0940 hn         1 7YI       0.323500
     70 H36         11.5560     5.1550     4.4350 ho         1 7YI       0.409000
     71 O27         11.5330     4.3450     4.9520 oh         1 7YI      -0.593800
     72 H15         19.9250     1.5680     6.2210 hc         1 7YI       0.072200
@<TRIPOS>BOND
     1     1     8 ar  
     2     1    23 ar  
     3     1    36 1   
     4     2     3 1   
     5     2    17 1   
     6     2    27 1   
     7     2    37 1   
     8     3    28 1   
     9     3    33 2   
    10     4     5 1   
    11     4    20 1   
    12     4    28 1   
    13     4    38 1   
    14     5    29 1   
    15     5    34 2   
    16     6     7 1   
    17     6    13 1   
    18     6    29 1   
    19     6    39 1   
    20     7     9 1   
    21     7    40 1   
    22     7    41 1   
    23     8    16 ar  
    24     8    42 1   
    25     9    10 1   
    26     9    12 1   
    27     9    43 1   
    28    10    11 1   
    29    10    44 1   
    30    10    45 1   
    31    11    30 1   
    32    11    46 1   
    33    11    47 1   
    34    12    30 1   
    35    12    31 2   
    36    13    48 1   
    37    13    49 1   
    38    13    71 1   
    39    14    15 1   
    40    14    25 1   
    41    14    50 1   
    42    14    72 1   
    43    15    25 1   
    44    15    51 1   
    45    15    52 1   
    46    16    21 ar  
    47    16    53 1   
    48    17    18 1   
    49    17    19 1   
    50    17    54 1   
    51    18    19 1   
    52    18    55 1   
    53    18    56 1   
    54    19    57 1   
    55    19    58 1   
    56    20    25 1   
    57    20    59 1   
    58    20    60 1   
    59    21    22 ar  
    60    21    24 1   
    61    22    23 ar  
    62    22    61 1   
    63    23    62 1   
    64    24    35 1   
    65    24    63 1   
    66    24    64 1   
    67    25    65 1   
    68    26    27 1   
    69    26    32 2   
    70    26    35 1   
    71    27    66 1   
    72    28    67 1   
    73    29    68 1   
    74    30    69 1   
    75    70    71 1   
@<TRIPOS>SUBSTRUCTURE
     1 7YI         1 TEMP              0 ****  ****    0 ROOT
