@<TRIPOS>MOLECULE
7YI
   72    75     1     0     0
SMALL
No Charge or Current Charge


@<TRIPOS>ATOM
      1 C1          19.1140    -7.9500    11.8570 ca         1 7YI      -0.102000
      2 C11         17.1740    -2.1320     8.3130 c3         1 7YI       0.091700
      3 C12         16.7450    -0.6380     8.1790 c          1 7YI       0.596100
      4 C14         15.5650     1.0160     6.6490 c3         1 7YI       0.038700
      5 C15         14.1820     0.8780     5.9510 c          1 7YI       0.587100
      6 C17         12.1200     2.1560     5.2540 c3         1 7YI       0.104700
      7 C19         11.2790     3.2400     5.9790 c3         1 7YI      -0.070400
      8 C2          18.7700    -6.8740    12.6910 ca         1 7YI      -0.115000
      9 C20         11.1300     3.0420     7.5160 c5         1 7YI      -0.158700
     10 C21         10.4770     1.6990     7.9480 c5         1 7YI      -0.092400
     11 C22         10.0000     2.0380     9.3870 c5         1 7YI       0.101000
     12 C24         10.2300     4.0850     8.1900 c          1 7YI       0.567000
     13 C25         12.2420     2.3920     3.7230 c3         1 7YI       0.151600
     14 C28         18.0600     3.2270     7.3890 cx         1 7YI      -0.128400
     15 C29         18.7250     3.2900     6.0320 cx         1 7YI      -0.128400
     16 C3          19.3000    -5.5950    12.4460 ca         1 7YI      -0.086000
     17 C30         15.9600    -3.0570     8.4370 cx         1 7YI      -0.154700
     18 C31         16.0440    -4.5170     8.0470 cx         1 7YI      -0.118400
     19 C32         15.2280    -3.5600     7.2110 cx         1 7YI      -0.118400
     20 C34         16.5700     1.7860     5.7490 c3         1 7YI      -0.055400
     21 C4          20.1770    -5.3840    11.3630 ca         1 7YI      -0.122300
     22 C5          20.5190    -6.4690    10.5300 ca         1 7YI      -0.086000
     23 C6          19.9880    -7.7470    10.7760 ca         1 7YI      -0.115000
     24 C7          20.7500    -3.9920    11.1010 c3         1 7YI       0.230900
     25 C8          17.9100     2.0790     6.4190 cx         1 7YI      -0.127700
     26 C9          19.0840    -3.2090     9.5520 c          1 7YI       0.644100
     27 N10         18.0520    -2.3200     9.4810 ns         1 7YI      -0.487900
     28 N13         16.0820    -0.3240     7.0100 ns         1 7YI      -0.474900
     29 N16         13.4510     2.0450     5.8680 ns         1 7YI      -0.499900
     30 N23          9.5980     3.4320     9.2130 ns         1 7YI      -0.514900
     31 O26          9.9140     5.2020     7.8140 o          1 7YI      -0.561000
     32 O29         19.4450    -3.9410     8.6440 o          1 7YI      -0.535000
     33 O33         16.9500     0.1990     9.0520 o          1 7YI      -0.602100
     34 O38         13.7570    -0.1830     5.5100 o          1 7YI      -0.609100
     35 O8          19.6770    -3.0900    10.7720 os         1 7YI      -0.454100
     36 H1          18.7030    -8.9400    12.0470 ha         1 7YI       0.111000
     37 H2          17.7340    -2.3840     7.4030 h1         1 7YI       0.070700
     38 H3          15.3970     1.5950     7.5670 h1         1 7YI       0.081700
     39 H4          11.6050     1.1950     5.3900 h1         1 7YI       0.092700
     40 H5          11.7280     4.2210     5.7810 hc         1 7YI       0.065200
     41 H6          10.2800     3.2690     5.5260 hc         1 7YI       0.065200
     42 H7          18.0920    -7.0290    13.5280 ha         1 7YI       0.112000
     43 H8          12.1110     3.1170     7.9990 hc         1 7YI       0.095700
     44 H9           9.6230     1.4460     7.3080 hc         1 7YI       0.062700
     45 H10         11.1720     0.8510     7.9230 hc         1 7YI       0.062700
     46 H11          9.1730     1.3920     9.7100 h1         1 7YI       0.041700
     47 H12         10.8180     1.9470    10.1140 h1         1 7YI       0.041700
     48 H13         12.8880     1.6150     3.2940 h1         1 7YI       0.022200
     49 H14         12.7280     3.3610     3.5470 h1         1 7YI       0.022200
     50 H16         17.1990     3.8680     7.5610 hc         1 7YI       0.072200
     51 H17         19.8060     3.1820     5.9920 hc         1 7YI       0.072200
     52 H18         18.3100     3.9760     5.2960 hc         1 7YI       0.072200
     53 H19         19.0270    -4.7660    13.0960 ha         1 7YI       0.116000
     54 H20         15.3480    -2.8220     9.3060 hc         1 7YI       0.095700
     55 H21         15.5100    -5.2370     8.6630 hc         1 7YI       0.077450
     56 H22         16.9770    -4.8850     7.6270 hc         1 7YI       0.077450
     57 H23         15.6160    -3.3030     6.2280 hc         1 7YI       0.077450
     58 H24         14.1450    -3.6370     7.2640 hc         1 7YI       0.077450
     59 H25         16.1100     2.7300     5.4320 hc         1 7YI       0.057200
     60 H26         16.7410     1.2100     4.8310 hc         1 7YI       0.057200
     61 H27         21.1930    -6.3210     9.6880 ha         1 7YI       0.116000
     62 H28         20.2540    -8.5790    10.1290 ha         1 7YI       0.112000
     63 H29         21.5000    -4.0250    10.2990 h1         1 7YI       0.068700
     64 H30         21.2620    -3.6500    12.0090 h1         1 7YI       0.068700
     65 H31         18.4740     1.1750     6.6420 hc         1 7YI       0.083700
     66 H32         17.9090    -1.7400    10.2980 hn         1 7YI       0.336500
     67 H33         15.8990    -1.0900     6.3710 hn         1 7YI       0.322500
     68 H34         13.8740     2.8810     6.2550 hn         1 7YI       0.315500
     69 H35          8.8870     3.9200     9.7440 hn         1 7YI       0.323500
     70 H36         11.1050     2.5060     2.1270 ho         1 7YI       0.448000
     71 O27         10.9550     2.3590     3.0870 oh         1 7YI      -0.656000
     72 H15         18.6930     3.0730     8.2590 hc         1 7YI       0.072200
@<TRIPOS>BOND
     1     1     8 ar  
     2     1    23 ar  
     3     1    36 1   
     4     2     3 1   
     5     2    17 1   
     6     2    27 1   
     7     2    37 1   
     8     3    28 1   
     9     3    33 2   
    10     4     5 1   
    11     4    20 1   
    12     4    28 1   
    13     4    38 1   
    14     5    29 1   
    15     5    34 2   
    16     6     7 1   
    17     6    13 1   
    18     6    29 1   
    19     6    39 1   
    20     7     9 1   
    21     7    40 1   
    22     7    41 1   
    23     8    16 ar  
    24     8    42 1   
    25     9    10 1   
    26     9    12 1   
    27     9    43 1   
    28    10    11 1   
    29    10    44 1   
    30    10    45 1   
    31    11    30 1   
    32    11    46 1   
    33    11    47 1   
    34    12    30 1   
    35    12    31 2   
    36    13    48 1   
    37    13    49 1   
    38    13    71 1   
    39    14    15 1   
    40    14    25 1   
    41    14    50 1   
    42    14    72 1   
    43    15    25 1   
    44    15    51 1   
    45    15    52 1   
    46    16    21 ar  
    47    16    53 1   
    48    17    18 1   
    49    17    19 1   
    50    17    54 1   
    51    18    19 1   
    52    18    55 1   
    53    18    56 1   
    54    19    57 1   
    55    19    58 1   
    56    20    25 1   
    57    20    59 1   
    58    20    60 1   
    59    21    22 ar  
    60    21    24 1   
    61    22    23 ar  
    62    22    61 1   
    63    23    62 1   
    64    24    35 1   
    65    24    63 1   
    66    24    64 1   
    67    25    65 1   
    68    26    27 1   
    69    26    32 2   
    70    26    35 1   
    71    27    66 1   
    72    28    67 1   
    73    29    68 1   
    74    30    69 1   
    75    70    71 1   
@<TRIPOS>SUBSTRUCTURE
     1 7YI         1 TEMP              0 ****  ****    0 ROOT
