@<TRIPOS>MOLECULE
7YK
   59    63     1     0     0
SMALL
bcc


@<TRIPOS>ATOM
      1 CAJ         17.5620     1.1330    -3.1300 c6         1 7YK      -0.124400
      2 CAK         18.8880     0.4430    -3.4170 c6         1 7YK       0.131400
      3 OAL         19.9070     1.3660    -3.7280 os         1 7YK      -0.402600
      4 CAM         19.5950     2.1330    -4.8700 c6         1 7YK       0.131400
      5 CAN         18.3160     2.9370    -4.6840 c6         1 7YK      -0.124400
      6 CAI         17.1710     1.9940    -4.3250 c6         1 7YK       0.132700
      7 NAC         15.9180     2.7030    -4.0960 n          1 7YK      -0.241800
      8 NAB         15.9430     3.5310    -3.0130 n2         1 7YK      -0.454300
      9 CAD         14.8990     2.6640    -5.0040 c          1 7YK       0.698500
     10 OAE         14.9520     1.9890    -6.0180 o          1 7YK      -0.613500
     11 CAF         13.7380     3.5560    -4.6680 c6         1 7YK      -0.166400
     12 CAG         13.5280     3.6760    -3.1670 c6         1 7YK      -0.130000
     13 CAH         12.9760     2.3870    -2.5500 c3         1 7YK      -0.087100
     14 CAA         14.8560     4.0160    -2.5500 ce         1 7YK       0.408900
     15 CAO         14.9520     4.8810    -1.3640 ca         1 7YK      -0.149900
     16 CBF         13.8150     5.2920    -0.6690 ca         1 7YK      -0.076500
     17 CBE         13.8940     6.0900     0.4610 ca         1 7YK      -0.170000
     18 CAP         16.1920     5.3060    -0.8770 ca         1 7YK      -0.076500
     19 CAQ         16.2830     6.1130     0.2370 ca         1 7YK      -0.170000
     20 CAR         15.1350     6.5240     0.9240 ca         1 7YK       0.095600
     21 NAS         15.3020     7.3030     2.0670 ns         1 7YK      -0.490100
     22 CAT         14.4170     8.2520     2.5270 c          1 7YK       0.802100
     23 OBD         13.3770     8.5320     1.9490 o          1 7YK      -0.618100
     24 NAU         14.7820     8.8610     3.6790 n          1 7YK      -0.507800
     25 CAY         15.9410     8.5290     4.4990 c5         1 7YK       0.152300
     26 CAX         15.7620     9.4280     5.6790 ca         1 7YK      -0.070300
     27 CAZ         16.5390     9.5650     6.8150 ca         1 7YK      -0.225300
     28 CBA         16.1200    10.4970     7.7550 ca         1 7YK       0.405200
     29 NBB         15.0320    11.2500     7.6210 nb         1 7YK      -0.659000
     30 CBC         14.2960    11.1080     6.5250 ca         1 7YK       0.426200
     31 CAW         14.6280    10.2060     5.5300 ca         1 7YK      -0.221600
     32 CAV         13.9320     9.9030     4.2430 c5         1 7YK       0.173300
     33 H1          17.6510     1.7490    -2.2320 hc         1 7YK       0.061200
     34 H2          16.7950     0.3780    -2.9390 hc         1 7YK       0.061200
     35 H3          18.7550    -0.2730    -4.2420 h1         1 7YK       0.045450
     36 H4          19.2220    -0.1220    -2.5450 h1         1 7YK       0.045450
     37 H5          19.4930     1.4810    -5.7510 h1         1 7YK       0.045450
     38 H6          20.4410     2.7970    -5.0510 h1         1 7YK       0.045450
     39 H7          18.4560     3.6790    -3.8940 hc         1 7YK       0.061200
     40 H8          18.0910     3.4760    -5.6080 hc         1 7YK       0.061200
     41 H9          16.9930     1.3340    -5.1750 h1         1 7YK       0.079700
     42 H10         13.9490     4.5430    -5.0960 hc         1 7YK       0.082200
     43 H11         12.8450     3.1790    -5.1660 hc         1 7YK       0.082200
     44 H12         12.8120     4.4800    -2.9930 hc         1 7YK       0.072700
     45 H13         12.8150     2.5000    -1.4780 hc         1 7YK       0.044033
     46 H14         12.0190     2.1340    -3.0080 hc         1 7YK       0.044033
     47 H15         13.6520     1.5440    -2.6980 hc         1 7YK       0.044033
     48 H16         12.8300     4.9800    -0.9910 ha         1 7YK       0.141500
     49 H17         12.9850     6.3590     0.9750 ha         1 7YK       0.144500
     50 H18         17.0990     5.0130    -1.3880 ha         1 7YK       0.141500
     51 H19         17.2580     6.4400     0.5800 ha         1 7YK       0.144500
     52 H20         16.2370     7.3010     2.4450 hn         1 7YK       0.315500
     53 H21         15.9470     7.4740     4.7920 h1         1 7YK       0.057700
     54 H22         16.8880     8.7380     3.9880 h1         1 7YK       0.057700
     55 H23         17.4340     8.9800     6.9780 ha         1 7YK       0.147000
     56 H24         16.6950    10.6400     8.6630 h4         1 7YK       0.023100
     57 H25         13.4140    11.7350     6.4420 h4         1 7YK       0.027100
     58 H26         13.8770    10.7790     3.5900 h1         1 7YK       0.072200
     59 H27         12.9100     9.5490     4.4030 h1         1 7YK       0.072200
@<TRIPOS>BOND
     1     1     2 1   
     2     1     6 1   
     3     1    33 1   
     4     1    34 1   
     5     2     3 1   
     6     2    35 1   
     7     2    36 1   
     8     3     4 1   
     9     4     5 1   
    10     4    37 1   
    11     4    38 1   
    12     5     6 1   
    13     5    39 1   
    14     5    40 1   
    15     6     7 1   
    16     6    41 1   
    17     7     8 1   
    18     7     9 1   
    19     8    14 2   
    20     9    10 2   
    21     9    11 1   
    22    11    12 1   
    23    11    42 1   
    24    11    43 1   
    25    12    13 1   
    26    12    14 1   
    27    12    44 1   
    28    13    45 1   
    29    13    46 1   
    30    13    47 1   
    31    14    15 1   
    32    15    16 ar  
    33    15    18 ar  
    34    16    17 ar  
    35    16    48 1   
    36    17    20 ar  
    37    17    49 1   
    38    18    19 ar  
    39    18    50 1   
    40    19    20 ar  
    41    19    51 1   
    42    20    21 1   
    43    21    22 1   
    44    21    52 1   
    45    22    23 2   
    46    22    24 1   
    47    24    25 1   
    48    24    32 1   
    49    25    26 1   
    50    25    53 1   
    51    25    54 1   
    52    26    27 ar  
    53    26    31 ar  
    54    27    28 ar  
    55    27    55 1   
    56    28    29 ar  
    57    28    56 1   
    58    29    30 ar  
    59    30    31 ar  
    60    30    57 1   
    61    31    32 1   
    62    32    58 1   
    63    32    59 1   
@<TRIPOS>SUBSTRUCTURE
     1 7YK         1 TEMP              0 ****  ****    0 ROOT
