@<TRIPOS>MOLECULE
7YK
   59    63     1     0     0
SMALL
No Charge or Current Charge


@<TRIPOS>ATOM
      1 CAJ         17.3360     1.2810    -2.9840 c6         1 7YK      -0.124400
      2 CAK         18.6740     0.5170    -2.8600 c6         1 7YK       0.154600
      3 OAL         19.7770     1.4480    -2.9130 os         1 7YK      -0.449000
      4 CAM         19.8570     2.1950    -4.1460 c6         1 7YK       0.154600
      5 CAN         18.5780     3.0450    -4.3220 c6         1 7YK      -0.124400
      6 CAI         17.3170     2.1350    -4.2800 c6         1 7YK       0.132700
      7 NAC         16.0390     2.8910    -4.4020 n          1 7YK      -0.174800
      8 NAB         15.9010     4.0310    -3.6160 n2         1 7YK      -0.454300
      9 CAD         14.9360     2.3900    -5.1450 c          1 7YK       0.556000
     10 OAE         14.9850     1.3520    -5.7940 o          1 7YK      -0.538000
     11 CAF         13.6340     3.1910    -5.0230 c6         1 7YK      -0.166400
     12 CAG         13.4440     3.7360    -3.5740 c6         1 7YK      -0.130000
     13 CAH         12.9040     2.6250    -2.6280 c3         1 7YK      -0.087100
     14 CAA         14.7760     4.3100    -3.0210 ce         1 7YK       0.408900
     15 CAO         14.7930     5.0900    -1.7310 ca         1 7YK      -0.149900
     16 CBF         13.6320     5.7180    -1.2230 ca         1 7YK      -0.058500
     17 CBE         13.6740     6.4610    -0.0300 ca         1 7YK      -0.152000
     18 CAP         16.0020     5.2570    -1.0170 ca         1 7YK      -0.058500
     19 CAQ         16.0400     6.0000     0.1750 ca         1 7YK      -0.152000
     20 CAR         14.8800     6.6060     0.6840 ca         1 7YK       0.003000
     21 NAS         15.0000     7.3430     1.8950 ns         1 7YK      -0.164000
     22 CAT         14.0730     8.0120     2.6830 c          1 7YK       0.668100
     23 OBD         12.8750     8.0720     2.4390 o          1 7YK      -0.618100
     24 NAU         14.6020     8.6400     3.8220 n          1 7YK      -0.440800
     25 CAY         16.0580     8.6140     4.1920 c5         1 7YK       0.152300
     26 CAX         16.0290     9.4240     5.4590 ca         1 7YK      -0.070300
     27 CAZ         17.0980     9.7670     6.2990 ca         1 7YK      -0.142000
     28 CBA         16.8170    10.5440     7.4420 ca         1 7YK       0.339900
     29 NBB         15.5660    10.9710     7.7610 nb         1 7YK      -0.659000
     30 CBC         14.5480    10.6270     6.9320 ca         1 7YK       0.360900
     31 CAW         14.7610     9.8550     5.7780 ca         1 7YK      -0.156300
     32 CAV         13.7350     9.4030     4.7770 c5         1 7YK       0.173300
     33 H1          17.1970     1.9230    -2.1040 hc         1 7YK       0.061200
     34 H2          16.5010     0.5670    -2.9910 hc         1 7YK       0.061200
     35 H3          18.7760    -0.2150    -3.6740 h1         1 7YK       0.045450
     36 H4          18.7100    -0.0260    -1.9040 h1         1 7YK       0.045450
     37 H5          19.9760     1.4980    -4.9880 h1         1 7YK       0.045450
     38 H6          20.7410     2.8470    -4.1120 h1         1 7YK       0.045450
     39 H7          18.5440     3.8000    -3.5260 hc         1 7YK       0.061200
     40 H8          18.6190     3.5890    -5.2750 hc         1 7YK       0.061200
     41 H9          17.3910     1.4460    -5.1350 h1         1 7YK       0.079700
     42 H10         13.7740     4.0760    -5.6580 hc         1 7YK       0.082200
     43 H11         12.7780     2.6210    -5.4060 hc         1 7YK       0.082200
     44 H12         12.6840     4.5260    -3.6120 hc         1 7YK       0.072700
     45 H13         12.7160     3.0110    -1.6200 hc         1 7YK       0.044033
     46 H14         11.9590     2.2120    -3.0020 hc         1 7YK       0.044033
     47 H15         13.6170     1.7970    -2.5370 hc         1 7YK       0.044033
     48 H16         12.6810     5.6440    -1.7420 ha         1 7YK       0.123500
     49 H17         12.7550     6.9210     0.3150 ha         1 7YK       0.126500
     50 H18         16.9240     4.8020    -1.3740 ha         1 7YK       0.123500
     51 H19         16.9850     6.1030     0.7050 ha         1 7YK       0.126500
     52 H20         15.9460     7.3870     2.2480 hn         1 7YK       0.149000
     53 H21         16.4160     7.5920     4.3790 h1         1 7YK       0.057700
     54 H22         16.6860     9.0890     3.4270 h1         1 7YK       0.057700
     55 H23         18.1140     9.4470     6.0840 ha         1 7YK       0.129000
     56 H24         17.6160    10.8330     8.1230 h4         1 7YK       0.023100
     57 H25         13.5510    10.9770     7.2000 h4         1 7YK       0.027100
     58 H26         13.2410    10.2550     4.2900 h1         1 7YK       0.072200
     59 H27         12.9730     8.7610     5.2400 h1         1 7YK       0.072200
@<TRIPOS>BOND
     1     1     2 1   
     2     1     6 1   
     3     1    33 1   
     4     1    34 1   
     5     2     3 1   
     6     2    35 1   
     7     2    36 1   
     8     3     4 1   
     9     4     5 1   
    10     4    37 1   
    11     4    38 1   
    12     5     6 1   
    13     5    39 1   
    14     5    40 1   
    15     6     7 1   
    16     6    41 1   
    17     7     8 1   
    18     7     9 1   
    19     8    14 2   
    20     9    10 2   
    21     9    11 1   
    22    11    12 1   
    23    11    42 1   
    24    11    43 1   
    25    12    13 1   
    26    12    14 1   
    27    12    44 1   
    28    13    45 1   
    29    13    46 1   
    30    13    47 1   
    31    14    15 1   
    32    15    16 ar  
    33    15    18 ar  
    34    16    17 ar  
    35    16    48 1   
    36    17    20 ar  
    37    17    49 1   
    38    18    19 ar  
    39    18    50 1   
    40    19    20 ar  
    41    19    51 1   
    42    20    21 1   
    43    21    22 1   
    44    21    52 1   
    45    22    23 2   
    46    22    24 1   
    47    24    25 1   
    48    24    32 1   
    49    25    26 1   
    50    25    53 1   
    51    25    54 1   
    52    26    27 ar  
    53    26    31 ar  
    54    27    28 ar  
    55    27    55 1   
    56    28    29 ar  
    57    28    56 1   
    58    29    30 ar  
    59    30    31 ar  
    60    30    57 1   
    61    31    32 1   
    62    32    58 1   
    63    32    59 1   
@<TRIPOS>SUBSTRUCTURE
     1 7YK         1 TEMP              0 ****  ****    0 ROOT
