@<TRIPOS>MOLECULE
7YL
   13    13     1     0     0
SMALL
abcg2


@<TRIPOS>ATOM
      1 C            4.5180   -31.8050   -26.7490 c          1 7YL       0.732000
      2 O            3.3270   -31.6680   -26.4410 o          1 7YL      -0.704000
      3 CA           4.8840   -31.6500   -28.2650 c5         1 7YL      -0.057100
      4 N            3.7930   -31.3400   -29.1440 ns         1 7YL      -0.469900
      5 CB           5.3710   -32.9430   -28.8280 c2         1 7YL      -0.138200
      6 CG           4.6000   -33.3300   -29.8430 ce         1 7YL      -0.352200
      7 CD           3.5380   -32.3190   -30.0460 c          1 7YL       0.551200
      8 OE           2.6220   -32.3450   -30.8560 o          1 7YL      -0.622000
      9 HA           5.6730   -30.8900   -28.3320 h1         1 7YL       0.063700
     10 H            3.1260   -30.6160   -28.9360 hn         1 7YL       0.323500
     11 HB           6.2340   -33.4560   -28.4280 ha         1 7YL       0.191000
     12 HG           4.6880   -34.2280   -30.4360 ha         1 7YL       0.186000
     13 OXT          5.4960   -32.0520   -26.0260 o          1 7YL      -0.704000
@<TRIPOS>BOND
     1     1     2 1   
     2     1     3 1   
     3     1    13 1   
     4     3     4 1   
     5     3     5 1   
     6     3     9 1   
     7     4     7 1   
     8     4    10 1   
     9     5     6 2   
    10     5    11 1   
    11     6     7 1   
    12     6    12 1   
    13     7     8 2   
@<TRIPOS>SUBSTRUCTURE
     1 7YL         1 TEMP              0 ****  ****    0 ROOT
