@<TRIPOS>MOLECULE
7YL
   13    13     1     0     0
SMALL
No Charge or Current Charge


@<TRIPOS>ATOM
      1 C            4.4940   -31.7340   -26.7390 c          1 7YL       0.732000
      2 O            4.4030   -30.7220   -26.0560 o          1 7YL      -0.704000
      3 CA           4.8630   -31.5770   -28.2590 c5         1 7YL      -0.057100
      4 N            3.5940   -31.5400   -29.0480 ns         1 7YL      -0.469900
      5 CB           5.5510   -32.8030   -28.8920 c2         1 7YL      -0.138200
      6 CG           4.7600   -33.2810   -29.8660 ce         1 7YL      -0.352200
      7 CD           3.5300   -32.5200   -29.9910 c          1 7YL       0.551200
      8 OE           2.6130   -32.7090   -30.7720 o          1 7YL      -0.622000
      9 HA           5.4580   -30.6630   -28.3870 h1         1 7YL       0.063700
     10 H            2.8230   -30.8900   -28.9410 hn         1 7YL       0.323500
     11 HB           6.5210   -33.2140   -28.6010 ha         1 7YL       0.191000
     12 HG           4.9640   -34.1390   -30.5030 ha         1 7YL       0.186000
     13 OXT          4.2980   -32.8480   -26.2720 o          1 7YL      -0.704000
@<TRIPOS>BOND
     1     1     2 1   
     2     1     3 1   
     3     1    13 1   
     4     3     4 1   
     5     3     5 1   
     6     3     9 1   
     7     4     7 1   
     8     4    10 1   
     9     5     6 2   
    10     5    11 1   
    11     6     7 1   
    12     6    12 1   
    13     7     8 2   
@<TRIPOS>SUBSTRUCTURE
     1 7YL         1 TEMP              0 ****  ****    0 ROOT
