@<TRIPOS>MOLECULE
7YN
   50    53     1     0     0
SMALL
abcg2


@<TRIPOS>ATOM
      1 C10        119.8620    76.6240    89.7410 c5         1 7YN      -0.031100
      2 C20        126.3720    80.4040    90.2670 cc         1 7YN      -0.038000
      3 C22        127.5440    79.5960    90.3360 cc         1 7YN      -0.177300
      4 C24        128.4200    79.4130    91.5430 c3         1 7YN       0.259300
      5 C01        121.1340    76.2670    90.4570 ca         1 7YN      -0.095300
      6 C02        122.2770    77.0410    90.6320 ca         1 7YN      -0.016000
      7 C03        121.0740    74.9650    90.9530 ca         1 7YN      -0.079300
      8 C04        123.3490    76.4920    91.3180 ca         1 7YN      -0.085300
      9 C05        122.1430    74.4020    91.6320 ca         1 7YN      -0.075000
     10 C06        123.2810    75.1820    91.8120 ca         1 7YN      -0.055800
     11 C07        124.6680    77.0900    91.6990 c5         1 7YN      -0.017900
     12 C08        125.3230    75.9810    92.4660 c2         1 7YN      -0.206200
     13 C09        124.5290    74.9020    92.5160 ce         1 7YN      -0.179200
     14 C11        118.8780    75.5500    90.2340 c5         1 7YN      -0.078400
     15 C12        119.7500    74.3400    90.6040 c5         1 7YN      -0.033100
     16 C14        123.2150    78.8000    89.2630 c          1 7YN       0.667100
     17 C19        125.9170    80.2720    88.9990 cd         1 7YN      -0.120100
     18 C23        127.6910    79.0590    89.0960 cd         1 7YN       0.187900
     19 C25        129.3460    78.2120    91.3760 c3         1 7YN      -0.120600
     20 C27        129.2400    80.6850    91.7700 c3         1 7YN      -0.120600
     21 N13        122.3140    78.3780    90.1740 ns         1 7YN      -0.164000
     22 N15        123.2190    80.1790    89.0660 ns         1 7YN      -0.588300
     23 O16        123.9850    78.0800    88.6600 o          1 7YN      -0.581100
     24 O18        124.3460    82.3080    88.5740 o          1 7YN      -0.512500
     25 O21        126.7080    79.4670    88.2750 os         1 7YN      -0.143000
     26 O26        127.5220    79.2040    92.6210 oh         1 7YN      -0.660000
     27 O28        124.4800    80.4660    86.8670 o          1 7YN      -0.512500
     28 S17        124.4760    80.9050    88.2410 sy         1 7YN       1.163900
     29 H1         120.0110    76.5600    88.6580 hc         1 7YN       0.053700
     30 H2         119.5120    77.6370    89.9480 hc         1 7YN       0.053700
     31 H3         125.9220    80.9840    91.0580 ha         1 7YN       0.154000
     32 H4         122.0900    73.3920    92.0230 ha         1 7YN       0.120000
     33 H5         125.2650    77.3780    90.8290 hc         1 7YN       0.084200
     34 H6         124.5570    78.0010    92.2980 hc         1 7YN       0.084200
     35 H7         126.3080    76.0700    92.9010 ha         1 7YN       0.192000
     36 H8         124.7570    73.9630    93.0030 ha         1 7YN       0.192000
     37 H9         118.3660    75.9150    91.1270 hc         1 7YN       0.046200
     38 H10        118.1130    75.3120    89.4960 hc         1 7YN       0.046200
     39 H11        119.3290    73.7490    91.4180 hc         1 7YN       0.055200
     40 H12        119.8680    73.6640    89.7510 hc         1 7YN       0.055200
     41 H13        128.4290    78.4020    88.6640 h4         1 7YN       0.062100
     42 H14        129.9530    78.0820    92.2740 hc         1 7YN       0.045533
     43 H15        128.7790    77.2940    91.2130 hc         1 7YN       0.045533
     44 H16        130.0310    78.3470    90.5390 hc         1 7YN       0.045533
     45 H17        129.8560    80.5880    92.6670 hc         1 7YN       0.045533
     46 H18        129.9080    80.8730    90.9290 hc         1 7YN       0.045533
     47 H19        128.5940    81.5550    91.8910 hc         1 7YN       0.045533
     48 H20        121.6130    79.0160    90.5220 hn         1 7YN       0.162000
     49 H21        122.7400    80.7920    89.7160 hn         1 7YN       0.336500
     50 H22        128.0360    79.1550    93.4350 ho         1 7YN       0.444000
@<TRIPOS>BOND
     1     1     5 1   
     2     1    14 1   
     3     1    29 1   
     4     1    30 1   
     5     2     3 1   
     6     2    17 2   
     7     2    31 1   
     8     3     4 1   
     9     3    18 2   
    10     4    19 1   
    11     4    20 1   
    12     4    26 1   
    13     5     6 ar  
    14     5     7 ar  
    15     6     8 ar  
    16     6    21 1   
    17     7     9 ar  
    18     7    15 1   
    19     8    10 ar  
    20     8    11 1   
    21     9    10 ar  
    22     9    32 1   
    23    10    13 1   
    24    11    12 1   
    25    11    33 1   
    26    11    34 1   
    27    12    13 2   
    28    12    35 1   
    29    13    36 1   
    30    14    15 1   
    31    14    37 1   
    32    14    38 1   
    33    15    39 1   
    34    15    40 1   
    35    16    21 1   
    36    16    22 1   
    37    16    23 2   
    38    17    25 1   
    39    17    28 1   
    40    18    25 1   
    41    18    41 1   
    42    19    42 1   
    43    19    43 1   
    44    19    44 1   
    45    20    45 1   
    46    20    46 1   
    47    20    47 1   
    48    21    48 1   
    49    22    28 1   
    50    22    49 1   
    51    24    28 2   
    52    26    50 1   
    53    27    28 2   
@<TRIPOS>SUBSTRUCTURE
     1 7YN         1 TEMP              0 ****  ****    0 ROOT
