@<TRIPOS>MOLECULE
7YN
   50    53     1     0     0
SMALL
No Charge or Current Charge


@<TRIPOS>ATOM
      1 C10        119.7940    76.7560    89.9250 c5         1 7YN      -0.031100
      2 C20        126.3950    80.4900    90.2030 cc         1 7YN      -0.038000
      3 C22        127.5960    79.7660    90.3800 cc         1 7YN      -0.177300
      4 C24        128.3270    79.6200    91.6930 c3         1 7YN       0.259300
      5 C01        121.0980    76.2320    90.4760 ca         1 7YN      -0.095300
      6 C02        122.3590    76.8660    90.4190 ca         1 7YN      -0.016000
      7 C03        120.9390    74.9820    91.0600 ca         1 7YN      -0.079300
      8 C04        123.4520    76.1920    91.0130 ca         1 7YN      -0.085300
      9 C05        122.0260    74.3050    91.6430 ca         1 7YN      -0.075000
     10 C06        123.2690    74.9530    91.6070 ca         1 7YN      -0.055800
     11 C07        124.9010    76.6500    91.1920 c5         1 7YN      -0.017900
     12 C08        125.5050    75.4680    91.9820 c2         1 7YN      -0.206200
     13 C09        124.5460    74.5370    92.1780 ce         1 7YN      -0.179200
     14 C11        118.7610    75.8420    90.6870 c5         1 7YN      -0.078400
     15 C12        119.5180    74.4920    90.9830 c5         1 7YN      -0.033100
     16 C14        123.4100    78.6270    88.9410 c          1 7YN       0.667100
     17 C19        126.0440    80.3560    88.8880 cd         1 7YN      -0.120100
     18 C23        127.8920    79.2470    89.1410 cd         1 7YN       0.187900
     19 C25        129.3350    78.4500    91.6640 c3         1 7YN      -0.120600
     20 C27        129.0330    80.9410    92.0620 c3         1 7YN      -0.120600
     21 N13        122.4800    78.1540    89.8420 ns         1 7YN      -0.164000
     22 N15        123.3720    79.9760    88.8070 ns         1 7YN      -0.588300
     23 O16        124.1890    77.9140    88.3290 o          1 7YN      -0.581100
     24 O18        124.2410    82.2940    88.5160 o          1 7YN      -0.512500
     25 O21        126.9560    79.5950    88.1920 os         1 7YN      -0.143000
     26 O26        127.3760    79.3360    92.7140 oh         1 7YN      -0.660000
     27 O28        124.5730    80.5600    86.6580 o          1 7YN      -0.512500
     28 S17        124.5450    80.9260    88.0800 sy         1 7YN       1.163900
     29 H1         119.7340    76.6150    88.8400 hc         1 7YN       0.053700
     30 H2         119.6290    77.8200    90.1320 hc         1 7YN       0.053700
     31 H3         125.8480    81.0140    90.9820 ha         1 7YN       0.154000
     32 H4         121.9040    73.3340    92.1150 ha         1 7YN       0.120000
     33 H5         125.4300    76.7830    90.2430 hc         1 7YN       0.084200
     34 H6         124.9780    77.5900    91.7510 hc         1 7YN       0.084200
     35 H7         126.5400    75.3870    92.3240 ha         1 7YN       0.192000
     36 H8         124.6580    73.5860    92.7030 ha         1 7YN       0.192000
     37 H9         118.4690    76.3180    91.6310 hc         1 7YN       0.046200
     38 H10        117.8390    75.6870    90.1160 hc         1 7YN       0.046200
     39 H11        119.1730    74.0190    91.9090 hc         1 7YN       0.055200
     40 H12        119.3880    73.7700    90.1690 hc         1 7YN       0.055200
     41 H13        128.7160    78.6260    88.8150 h4         1 7YN       0.062100
     42 H14        129.8250    78.3270    92.6370 hc         1 7YN       0.045533
     43 H15        128.8300    77.5090    91.4150 hc         1 7YN       0.045533
     44 H16        130.1160    78.6280    90.9150 hc         1 7YN       0.045533
     45 H17        129.5580    80.8560    93.0210 hc         1 7YN       0.045533
     46 H18        129.7690    81.2100    91.2950 hc         1 7YN       0.045533
     47 H19        128.3100    81.7620    92.1400 hc         1 7YN       0.045533
     48 H20        121.8300    78.8400    90.2000 hn         1 7YN       0.162000
     49 H21        122.7470    80.5250    89.3720 hn         1 7YN       0.336500
     50 H22        127.8790    79.2580    93.5520 ho         1 7YN       0.444000
@<TRIPOS>BOND
     1     1     5 1   
     2     1    14 1   
     3     1    29 1   
     4     1    30 1   
     5     2     3 1   
     6     2    17 2   
     7     2    31 1   
     8     3     4 1   
     9     3    18 2   
    10     4    19 1   
    11     4    20 1   
    12     4    26 1   
    13     5     6 ar  
    14     5     7 ar  
    15     6     8 ar  
    16     6    21 1   
    17     7     9 ar  
    18     7    15 1   
    19     8    10 ar  
    20     8    11 1   
    21     9    10 ar  
    22     9    32 1   
    23    10    13 1   
    24    11    12 1   
    25    11    33 1   
    26    11    34 1   
    27    12    13 2   
    28    12    35 1   
    29    13    36 1   
    30    14    15 1   
    31    14    37 1   
    32    14    38 1   
    33    15    39 1   
    34    15    40 1   
    35    16    21 1   
    36    16    22 1   
    37    16    23 2   
    38    17    25 1   
    39    17    28 1   
    40    18    25 1   
    41    18    41 1   
    42    19    42 1   
    43    19    43 1   
    44    19    44 1   
    45    20    45 1   
    46    20    46 1   
    47    20    47 1   
    48    21    48 1   
    49    22    28 1   
    50    22    49 1   
    51    24    28 2   
    52    26    50 1   
    53    27    28 2   
@<TRIPOS>SUBSTRUCTURE
     1 7YN         1 TEMP              0 ****  ****    0 ROOT
