@<TRIPOS>MOLECULE
7YO
   15    15     1     0     0
SMALL
No Charge or Current Charge


@<TRIPOS>ATOM
      1 C5           1.7580    -0.2750     0.1290 c          1 7YO       0.720000
      2 O2           1.9990    -1.4530     0.3680 o          1 7YO      -0.722500
      3 C4           0.3840     0.3380     0.6070 c5         1 7YO      -0.036300
      4 N1          -0.6810    -0.6850     0.4830 ns         1 7YO      -0.466900
      5 C3          -0.1530     1.4520    -0.3560 c5         1 7YO      -0.070400
      6 C2          -1.6760     1.2980    -0.1320 c5         1 7YO      -0.179400
      7 C1          -1.8430    -0.2170    -0.0650 c          1 7YO       0.548000
      8 O1          -2.6630    -0.9370    -0.6130 o          1 7YO      -0.628000
      9 H23          0.4830     0.6970     1.6400 h1         1 7YO       0.029700
     10 H24         -0.5220    -1.6860     0.4900 hn         1 7YO       0.332500
     11 H25          0.2240     2.4510    -0.1080 hc         1 7YO       0.050200
     12 H26          0.1040     1.2460    -1.4020 hc         1 7YO       0.050200
     13 H27         -1.9130     1.7170     0.8530 hc         1 7YO       0.047700
     14 H28         -2.3130     1.7530    -0.8980 hc         1 7YO       0.047700
     15 OXT          2.5440     0.4210    -0.4990 o          1 7YO      -0.722500
@<TRIPOS>BOND
     1     1     2 1   
     2     1     3 1   
     3     1    15 1   
     4     3     4 1   
     5     3     5 1   
     6     3     9 1   
     7     4     7 1   
     8     4    10 1   
     9     5     6 1   
    10     5    11 1   
    11     5    12 1   
    12     6     7 1   
    13     6    13 1   
    14     6    14 1   
    15     7     8 2   
@<TRIPOS>SUBSTRUCTURE
     1 7YO         1 TEMP              0 ****  ****    0 ROOT
