@<TRIPOS>MOLECULE
7YO
   15    15     1     0     0
SMALL
abcg2


@<TRIPOS>ATOM
      1 C5           1.7830    -0.2460     0.0620 c          1 7YO       0.720000
      2 O2           1.8970    -1.4650    -0.1570 o          1 7YO      -0.722500
      3 C4           0.4090     0.2700     0.5150 c5         1 7YO      -0.036300
      4 N1          -0.6540    -0.7080     0.4030 ns         1 7YO      -0.466900
      5 C3          -0.1370     1.4290    -0.3300 c5         1 7YO      -0.070400
      6 C2          -1.6520     1.2640    -0.2300 c5         1 7YO      -0.179400
      7 C1          -1.8380    -0.2230     0.0060 c          1 7YO       0.548000
      8 O1          -2.8740    -0.8590    -0.1280 o          1 7YO      -0.628000
      9 H23          0.5060     0.5960     1.5600 h1         1 7YO       0.029700
     10 H24         -0.5120    -1.6760     0.6420 hn         1 7YO       0.332500
     11 H25          0.2170     2.3960     0.0190 hc         1 7YO       0.050200
     12 H26          0.1790     1.3150    -1.3690 hc         1 7YO       0.050200
     13 H27         -2.0620     1.8000     0.6330 hc         1 7YO       0.047700
     14 H28         -2.1990     1.5980    -1.1110 hc         1 7YO       0.047700
     15 OXT          2.6670     0.6280    -0.0180 o          1 7YO      -0.722500
@<TRIPOS>BOND
     1     1     2 1   
     2     1     3 1   
     3     1    15 1   
     4     3     4 1   
     5     3     5 1   
     6     3     9 1   
     7     4     7 1   
     8     4    10 1   
     9     5     6 1   
    10     5    11 1   
    11     5    12 1   
    12     6     7 1   
    13     6    13 1   
    14     6    14 1   
    15     7     8 2   
@<TRIPOS>SUBSTRUCTURE
     1 7YO         1 TEMP              0 ****  ****    0 ROOT
