@<TRIPOS>MOLECULE
7YP
   50    51     1     0     0
SMALL
bcc


@<TRIPOS>ATOM
      1 C5           5.1050     0.3230    -1.6510 c3         1 7YP       0.195100
      2 C6          -2.5530    -1.7030    -0.3170 c3         1 7YP       0.122400
      3 C7          -0.1650     2.3310     1.8290 c          1 7YP       0.668100
      4 C10          0.8310    -2.2950     1.3000 c3         1 7YP       0.158300
      5 C15          4.0370    -0.3820    -0.8510 ca         1 7YP      -0.039300
      6 C17         -1.6660     0.1250    -1.8010 ca         1 7YP      -0.057500
      7 C20         -2.1560     2.4430    -1.3990 ca         1 7YP       0.126100
      8 C21          4.0580    -1.7510    -0.6380 ca         1 7YP      -0.148000
      9 C22         -2.9520     2.0720    -0.3170 ca         1 7YP      -0.203000
     10 C1          -1.5690    -1.9210     0.8450 c          1 7YP       0.638100
     11 C2           1.9680    -0.2300     0.3990 ca         1 7YP       0.160100
     12 C3           1.9740    -1.6210     0.5970 ca         1 7YP      -0.149300
     13 N4          -0.3430    -2.2920     0.4490 ns         1 7YP      -0.570900
     14 O8           0.9390     0.4280     0.9630 os         1 7YP      -0.281900
     15 C9          -2.4490    -0.2550    -0.7200 ca         1 7YP      -0.114300
     16 C11          2.9860     0.3740    -0.3260 ca         1 7YP      -0.231000
     17 O12         -1.8930    -1.7250     2.0020 o          1 7YP      -0.566100
     18 O13         -0.4400     1.7140     2.8400 o          1 7YP      -0.554100
     19 C14          3.0270    -2.3530     0.0770 ca         1 7YP      -0.087000
     20 C16         -3.0860     0.7380     0.0210 ca         1 7YP      -0.057500
     21 C18          0.8460     1.8160     0.8160 c3         1 7YP       0.050400
     22 N19         -0.6330     3.5560     1.5420 nt         1 7YP      -0.674000
     23 C23         -1.5140     1.4610    -2.1450 ca         1 7YP      -0.203000
     24 O24         -3.8640    -1.9850     0.0620 os         1 7YP      -0.378600
     25 O25         -2.0330     3.7600    -1.6650 oh         1 7YP      -0.505100
     26 N27          6.2940    -0.4850    -1.8340 n8         1 7YP      -0.889800
     27 H1           4.6950     0.5500    -2.6400 h1         1 7YP       0.035200
     28 H2           5.2990     1.2980    -1.1830 h1         1 7YP       0.035200
     29 H3          -2.2520    -2.3330    -1.1700 h1         1 7YP       0.037700
     30 H4           1.1140    -3.3200     1.5540 h1         1 7YP       0.068700
     31 H5           0.5730    -1.7910     2.2300 h1         1 7YP       0.068700
     32 H6          -1.1550    -0.6270    -2.3920 ha         1 7YP       0.146000
     33 H7           4.8680    -2.3480    -1.0340 ha         1 7YP       0.154000
     34 H8          -3.4510     2.8340     0.2680 ha         1 7YP       0.138000
     35 H9          -5.1670    -3.4630     0.5210 h1         1 7YP       0.035033
     36 H10         -3.9110    -3.9460    -0.6320 h1         1 7YP       0.035033
     37 H11         -3.5220    -3.7740     1.0900 h1         1 7YP       0.035033
     38 H12         -0.1890    -2.4650    -0.5310 hn         1 7YP       0.304500
     39 H13          2.9860     1.4440    -0.4990 ha         1 7YP       0.129000
     40 H14          3.0420    -3.4260     0.2320 ha         1 7YP       0.134000
     41 H15         -3.6910     0.4740     0.8780 ha         1 7YP       0.146000
     42 H16          0.5570     2.0880    -0.2060 h1         1 7YP       0.046200
     43 H17          1.7980     2.3160     1.0330 h1         1 7YP       0.046200
     44 H18         -0.5250     3.9590     0.6270 hn         1 7YP       0.313500
     45 H19         -1.3290     3.9740     2.1380 hn         1 7YP       0.313500
     46 H20         -0.8970     1.7300    -2.9940 ha         1 7YP       0.138000
     47 H21         -1.4560     3.8970    -2.4250 ho         1 7YP       0.424000
     48 H22          6.9200    -0.0180    -2.4760 hn         1 7YP       0.344300
     49 H23          6.7960    -0.5580    -0.9580 hn         1 7YP       0.344300
     50 C26         -4.1130    -3.3570     0.2690 c3         1 7YP       0.119700
@<TRIPOS>BOND
     1     1     5 1   
     2     1    26 1   
     3     1    27 1   
     4     1    28 1   
     5     2    10 1   
     6     2    15 1   
     7     2    24 1   
     8     2    29 1   
     9     3    18 2   
    10     3    21 1   
    11     3    22 1   
    12     4    12 1   
    13     4    13 1   
    14     4    30 1   
    15     4    31 1   
    16     5     8 ar  
    17     5    16 ar  
    18     6    15 ar  
    19     6    23 ar  
    20     6    32 1   
    21     7     9 ar  
    22     7    23 ar  
    23     7    25 1   
    24     8    19 ar  
    25     8    33 1   
    26     9    20 ar  
    27     9    34 1   
    28    10    13 1   
    29    10    17 2   
    30    11    12 ar  
    31    11    14 1   
    32    11    16 ar  
    33    12    19 ar  
    34    13    38 1   
    35    14    21 1   
    36    15    20 ar  
    37    16    39 1   
    38    19    40 1   
    39    20    41 1   
    40    21    42 1   
    41    21    43 1   
    42    22    44 1   
    43    22    45 1   
    44    23    46 1   
    45    24    50 1   
    46    25    47 1   
    47    26    48 1   
    48    26    49 1   
    49    35    50 1   
    50    36    50 1   
    51    37    50 1   
@<TRIPOS>SUBSTRUCTURE
     1 7YP         1 TEMP              0 ****  ****    0 ROOT
