@<TRIPOS>MOLECULE
7YP
   50    51     1     0     0
SMALL
No Charge or Current Charge


@<TRIPOS>ATOM
      1 C5           5.2650     0.2790    -1.7480 c3         1 7YP       0.195100
      2 C6          -2.7570    -1.8400    -0.2140 c3         1 7YP       0.145600
      3 C7          -0.0340     2.4600     1.9460 c          1 7YP       0.601100
      4 C10          0.8510    -2.3690     1.0860 c3         1 7YP       0.158300
      5 C15          4.1240    -0.4030    -0.9980 ca         1 7YP      -0.039300
      6 C17         -2.1240    -0.1910    -2.0540 ca         1 7YP      -0.039500
      7 C20         -2.1280     2.2110    -1.6650 ca         1 7YP       0.126100
      8 C21          4.0110    -1.8050    -1.0020 ca         1 7YP      -0.130000
      9 C22         -2.5660     1.9980    -0.3520 ca         1 7YP      -0.185000
     10 C1          -1.6460    -2.1900     0.8280 c          1 7YP       0.571100
     11 C2           2.1120    -0.2650     0.3930 ca         1 7YP       0.160100
     12 C3           2.0060    -1.6730     0.3800 ca         1 7YP      -0.149300
     13 N4          -0.3720    -2.2260     0.3020 ns         1 7YP      -0.503900
     14 O8           1.1630     0.4590     1.0910 os         1 7YP      -0.305100
     15 C9          -2.5590    -0.4140    -0.7310 ca         1 7YP      -0.114300
     16 C11          3.1710     0.3640    -0.2990 ca         1 7YP      -0.213000
     17 O12         -1.8560    -2.4050     2.0170 o          1 7YP      -0.566100
     18 O13         -0.7220     1.7800     2.6930 o          1 7YP      -0.554100
     19 C14          2.9580    -2.4370    -0.3210 ca         1 7YP      -0.069000
     20 C16         -2.7780     0.6900     0.1180 ca         1 7YP      -0.039500
     21 C18          1.0820     1.9010     1.0330 c3         1 7YP       0.073600
     22 N19         -0.2250     3.8000     1.8900 nt         1 7YP      -0.607000
     23 C23         -1.9080     1.1190    -2.5180 ca         1 7YP      -0.185000
     24 O24         -4.1050    -1.9440     0.3140 os         1 7YP      -0.425000
     25 O25         -1.9170     3.4820    -2.1070 oh         1 7YP      -0.544100
     26 N27          6.4810     0.3870    -0.9180 n8         1 7YP      -1.000200
     27 H1           5.5050    -0.2920    -2.6560 h1         1 7YP       0.035200
     28 H2           4.9540     1.2880    -2.0550 h1         1 7YP       0.035200
     29 H3          -2.6350    -2.5330    -1.0560 h1         1 7YP       0.037700
     30 H4           1.0690    -3.4370     1.2170 h1         1 7YP       0.068700
     31 H5           0.7080    -1.9280     2.0820 h1         1 7YP       0.068700
     32 H6          -1.9480    -1.0320    -2.7230 ha         1 7YP       0.128000
     33 H7           4.7420    -2.4060    -1.5390 ha         1 7YP       0.136000
     34 H8          -2.7380     2.8440     0.3080 ha         1 7YP       0.120000
     35 H9          -5.6140    -3.2670     0.9020 h1         1 7YP       0.035033
     36 H10         -4.5900    -3.8440    -0.4300 h1         1 7YP       0.035033
     37 H11         -3.9650    -3.8290     1.2370 h1         1 7YP       0.035033
     38 H12         -0.2780    -2.0170    -0.6840 hn         1 7YP       0.304500
     39 H13          3.2700     1.4450    -0.3040 ha         1 7YP       0.111000
     40 H14          2.8820    -3.5220    -0.3430 ha         1 7YP       0.116000
     41 H15         -3.1080     0.5330     1.1430 ha         1 7YP       0.128000
     42 H16          0.8770     2.2330     0.0070 h1         1 7YP       0.046200
     43 H17          2.0250     2.3560     1.3600 h1         1 7YP       0.046200
     44 H18          0.3370     4.3700     1.2740 hn         1 7YP       0.313500
     45 H19         -0.9380     4.2210     2.4670 hn         1 7YP       0.313500
     46 H20         -1.5680     1.2750    -3.5390 ha         1 7YP       0.120000
     47 H21         -1.6340     3.4410    -3.0460 ho         1 7YP       0.463000
     48 H22          7.1820     0.9380    -1.4270 hn         1 7YP       0.399500
     49 H23          6.2650     0.9660    -0.0980 hn         1 7YP       0.399500
     50 C26         -4.5870    -3.2860     0.5160 c3         1 7YP       0.142900
@<TRIPOS>BOND
     1     1     5 1   
     2     1    26 1   
     3     1    27 1   
     4     1    28 1   
     5     2    10 1   
     6     2    15 1   
     7     2    24 1   
     8     2    29 1   
     9     3    18 2   
    10     3    21 1   
    11     3    22 1   
    12     4    12 1   
    13     4    13 1   
    14     4    30 1   
    15     4    31 1   
    16     5     8 ar  
    17     5    16 ar  
    18     6    15 ar  
    19     6    23 ar  
    20     6    32 1   
    21     7     9 ar  
    22     7    23 ar  
    23     7    25 1   
    24     8    19 ar  
    25     8    33 1   
    26     9    20 ar  
    27     9    34 1   
    28    10    13 1   
    29    10    17 2   
    30    11    12 ar  
    31    11    14 1   
    32    11    16 ar  
    33    12    19 ar  
    34    13    38 1   
    35    14    21 1   
    36    15    20 ar  
    37    16    39 1   
    38    19    40 1   
    39    20    41 1   
    40    21    42 1   
    41    21    43 1   
    42    22    44 1   
    43    22    45 1   
    44    23    46 1   
    45    24    50 1   
    46    25    47 1   
    47    26    48 1   
    48    26    49 1   
    49    35    50 1   
    50    36    50 1   
    51    37    50 1   
@<TRIPOS>SUBSTRUCTURE
     1 7YP         1 TEMP              0 ****  ****    0 ROOT
