@<TRIPOS>MOLECULE
7YQ
   93    95     1     0     0
SMALL
bcc


@<TRIPOS>ATOM
      1 C1          -5.7900   -21.0650   -17.8930 ca         1 7YQ      -0.107300
      2 C10        -11.6480   -20.7410   -18.9280 c3         1 7YQ       0.169800
      3 C11         -9.8640   -17.7560   -18.1210 c3         1 7YQ       0.043700
      4 C12        -10.0640   -16.4420   -17.3720 c          1 7YQ       0.647100
      5 C13         -7.5380   -12.9270   -17.8380 c6         1 7YQ      -0.060700
      6 C14         -9.8590   -14.0160   -17.4590 c3         1 7YQ       0.038700
      7 C15        -11.3350   -13.6230   -17.5420 c          1 7YQ       0.653100
      8 C16         -6.7270   -14.1640   -18.2190 c6         1 7YQ      -0.072400
      9 C17        -13.2290   -12.7000   -16.2470 c3         1 7YQ       0.104700
     10 C18         -5.3090   -14.0890   -17.6320 c6         1 7YQ      -0.071400
     11 C19        -13.9980   -13.6460   -15.3230 c3         1 7YQ      -0.070400
     12 C2          -6.7570   -21.9800   -18.2990 ca         1 7YQ      -0.103000
     13 C20        -14.0570   -15.0760   -15.8340 c5         1 7YQ      -0.156700
     14 C21        -14.8630   -15.2990   -17.1130 c5         1 7YQ      -0.094400
     15 C22        -15.3380   -16.7480   -16.9920 c5         1 7YQ       0.100000
     16 C23         -4.7830   -12.6490   -17.5460 c6         1 7YQ      -0.075400
     17 C24        -14.7100   -16.0320   -14.8460 c          1 7YQ       0.707500
     18 C25         -5.3840   -11.7970   -18.6570 c6         1 7YQ      -0.071400
     19 C26         -6.9040   -11.6810   -18.4870 c6         1 7YQ      -0.072400
     20 C27        -11.2600   -21.2620   -17.5450 c3         1 7YQ      -0.107767
     21 C28        -11.1810   -21.7300   -19.9900 c3         1 7YQ      -0.107767
     22 C29        -13.1620   -20.5640   -19.0190 c3         1 7YQ      -0.107767
     23 C3          -6.5140   -22.7790   -19.4020 ca         1 7YQ       0.027400
     24 C30        -11.2250   -18.3670   -18.4990 c3         1 7YQ       0.150100
     25 C31        -12.0550   -17.3910   -19.3190 c3         1 7YQ      -0.120100
     26 C34         -9.0210   -12.9750   -18.2070 c3         1 7YQ      -0.081400
     27 C4          -5.3220   -22.7080   -20.1070 ca         1 7YQ      -0.114000
     28 C5          -4.3610   -21.8000   -19.6890 ca         1 7YQ      -0.120000
     29 C6          -4.5940   -20.9790   -18.5950 ca         1 7YQ      -0.105000
     30 C7          -6.0130   -20.2040   -16.6800 c3         1 7YQ       0.206700
     31 C8         -13.2090   -11.2660   -15.7240 c3         1 7YQ       0.127400
     32 C9          -7.7960   -18.8760   -17.4520 c          1 7YQ       0.759100
     33 N10         -9.1140   -18.6630   -17.2940 ns         1 7YQ      -0.550900
     34 N13         -9.6870   -15.3350   -18.0220 ns         1 7YQ      -0.545900
     35 N16        -11.8570   -13.1370   -16.4070 ns         1 7YQ      -0.564900
     36 N23        -15.4300   -16.9170   -15.5580 ns         1 7YQ      -0.583900
     37 O26        -14.5900   -16.0140   -13.6320 o          1 7YQ      -0.631500
     38 O29         -7.0860   -18.3470   -18.2790 o          1 7YQ      -0.585000
     39 O33        -10.5340   -16.4300   -16.2430 o          1 7YQ      -0.614100
     40 O5         -10.9530   -19.5310   -19.2410 os         1 7YQ      -0.417600
     41 O8          -7.3610   -19.7750   -16.5540 os         1 7YQ      -0.432900
     42 O9         -14.5300   -10.7910   -15.6410 oh         1 7YQ      -0.593800
     43 CL7         -7.7340   -23.9030   -19.9110 cl         1 7YQ      -0.118400
     44 H1          -9.3030   -17.5880   -19.0430 h1         1 7YQ       0.098700
     45 H2          -7.4810   -12.8160   -16.7480 hc         1 7YQ       0.045700
     46 H3          -9.5340   -14.0420   -16.4150 h1         1 7YQ       0.076700
     47 H4          -7.2040   -15.0820   -17.8750 hc         1 7YQ       0.040950
     48 H5          -6.6850   -14.2350   -19.3120 hc         1 7YQ       0.040950
     49 H6         -13.6860   -12.7000   -17.2380 h1         1 7YQ       0.092700
     50 H7          -4.6360   -14.6940   -18.2440 hc         1 7YQ       0.040200
     51 H8          -5.3030   -14.5390   -16.6370 hc         1 7YQ       0.040200
     52 H9         -13.5280   -13.6300   -14.3350 hc         1 7YQ       0.066200
     53 H10        -15.0140   -13.2660   -15.1950 hc         1 7YQ       0.066200
     54 H11         -7.6960   -22.0680   -17.7660 ha         1 7YQ       0.151000
     55 H12        -13.0360   -15.4550   -15.9780 hc         1 7YQ       0.090700
     56 H13        -14.2890   -15.1260   -18.0210 hc         1 7YQ       0.064700
     57 H14        -15.7260   -14.6280   -17.1270 hc         1 7YQ       0.064700
     58 H15        -16.3020   -16.9180   -17.4710 h1         1 7YQ       0.040700
     59 H16        -14.6170   -17.4480   -17.4290 h1         1 7YQ       0.040700
     60 H17         -3.6920   -12.6400   -17.5960 hc         1 7YQ       0.037700
     61 H18         -5.0460   -12.2090   -16.5800 hc         1 7YQ       0.037700
     62 H19         -5.1490   -12.2540   -19.6230 hc         1 7YQ       0.040200
     63 H20         -4.9340   -10.8030   -18.6750 hc         1 7YQ       0.040200
     64 H21         -7.1490   -10.8060   -17.8790 hc         1 7YQ       0.040950
     65 H22         -7.3650   -11.5090   -19.4650 hc         1 7YQ       0.040950
     66 H23        -11.5760   -20.5920   -16.7430 hc         1 7YQ       0.042922
     67 H24        -11.7380   -22.2250   -17.3600 hc         1 7YQ       0.042922
     68 H25        -10.1810   -21.4060   -17.4680 hc         1 7YQ       0.042922
     69 H26        -11.6590   -22.6980   -19.8420 hc         1 7YQ       0.042922
     70 H27        -11.4350   -21.3800   -20.9920 hc         1 7YQ       0.042922
     71 H28        -10.1010   -21.8800   -19.9410 hc         1 7YQ       0.042922
     72 H29        -13.5460   -19.8680   -18.2700 hc         1 7YQ       0.042922
     73 H30        -13.4580   -20.2010   -20.0050 hc         1 7YQ       0.042922
     74 H31        -13.6590   -21.5200   -18.8520 hc         1 7YQ       0.042922
     75 H32        -11.7600   -18.5950   -17.5680 h1         1 7YQ       0.051700
     76 H33        -12.2970   -16.4880   -18.7590 hc         1 7YQ       0.050033
     77 H34        -11.5250   -17.0940   -20.2260 hc         1 7YQ       0.050033
     78 H35        -12.9980   -17.8480   -19.6130 hc         1 7YQ       0.050033
     79 H36         -9.4450   -11.9900   -17.9860 hc         1 7YQ       0.056700
     80 H37         -9.1390   -13.1150   -19.2870 hc         1 7YQ       0.056700
     81 H38         -5.1490   -23.3410   -20.9660 ha         1 7YQ       0.147000
     82 H39         -3.4270   -21.7270   -20.2320 ha         1 7YQ       0.137000
     83 H40         -3.8420   -20.2610   -18.2910 ha         1 7YQ       0.136000
     84 H41         -5.8220   -20.7780   -15.7720 h1         1 7YQ       0.068700
     85 H42         -5.3270   -19.3540   -16.6830 h1         1 7YQ       0.068700
     86 H43        -12.7080   -11.2530   -14.7460 h1         1 7YQ       0.022700
     87 H44        -12.6010   -10.6580   -16.4060 h1         1 7YQ       0.022700
     88 H45         -9.5930   -19.1280   -16.5380 hn         1 7YQ       0.338500
     89 H46         -9.3600   -15.4110   -18.9730 hn         1 7YQ       0.334500
     90 H47        -11.2860   -13.1580   -15.5750 hn         1 7YQ       0.317500
     91 H48        -15.8520   -17.7270   -15.1310 hn         1 7YQ       0.323500
     92 H49        -14.5110    -9.9110   -15.2530 ho         1 7YQ       0.410000
     93 O38        -11.9460   -13.7270   -18.5950 o          1 7YQ      -0.610100
@<TRIPOS>BOND
     1     1    12 ar  
     2     1    29 ar  
     3     1    30 1   
     4     2    20 1   
     5     2    21 1   
     6     2    22 1   
     7     2    40 1   
     8     3     4 1   
     9     3    24 1   
    10     3    33 1   
    11     3    44 1   
    12     4    34 1   
    13     4    39 2   
    14     5     8 1   
    15     5    19 1   
    16     5    26 1   
    17     5    45 1   
    18     6     7 1   
    19     6    26 1   
    20     6    34 1   
    21     6    46 1   
    22     7    35 1   
    23     7    93 2   
    24     8    10 1   
    25     8    47 1   
    26     8    48 1   
    27     9    11 1   
    28     9    31 1   
    29     9    35 1   
    30     9    49 1   
    31    10    16 1   
    32    10    50 1   
    33    10    51 1   
    34    11    13 1   
    35    11    52 1   
    36    11    53 1   
    37    12    23 ar  
    38    12    54 1   
    39    13    14 1   
    40    13    17 1   
    41    13    55 1   
    42    14    15 1   
    43    14    56 1   
    44    14    57 1   
    45    15    36 1   
    46    15    58 1   
    47    15    59 1   
    48    16    18 1   
    49    16    60 1   
    50    16    61 1   
    51    17    36 1   
    52    17    37 2   
    53    18    19 1   
    54    18    62 1   
    55    18    63 1   
    56    19    64 1   
    57    19    65 1   
    58    20    66 1   
    59    20    67 1   
    60    20    68 1   
    61    21    69 1   
    62    21    70 1   
    63    21    71 1   
    64    22    72 1   
    65    22    73 1   
    66    22    74 1   
    67    23    27 ar  
    68    23    43 1   
    69    24    25 1   
    70    24    40 1   
    71    24    75 1   
    72    25    76 1   
    73    25    77 1   
    74    25    78 1   
    75    26    79 1   
    76    26    80 1   
    77    27    28 ar  
    78    27    81 1   
    79    28    29 ar  
    80    28    82 1   
    81    29    83 1   
    82    30    41 1   
    83    30    84 1   
    84    30    85 1   
    85    31    42 1   
    86    31    86 1   
    87    31    87 1   
    88    32    33 1   
    89    32    38 2   
    90    32    41 1   
    91    33    88 1   
    92    34    89 1   
    93    35    90 1   
    94    36    91 1   
    95    42    92 1   
@<TRIPOS>SUBSTRUCTURE
     1 7YQ         1 TEMP              0 ****  ****    0 ROOT
