@<TRIPOS>MOLECULE
7YQ
   93    95     1     0     0
SMALL
No Charge or Current Charge


@<TRIPOS>ATOM
      1 C1          -4.9780   -21.1720   -19.3190 ca         1 7YQ      -0.107300
      2 C10        -12.0760   -19.5730   -17.1550 c3         1 7YQ       0.193000
      3 C11         -9.1960   -17.9670   -18.6340 c3         1 7YQ       0.043700
      4 C12         -9.2910   -16.7870   -17.6310 c          1 7YQ       0.580100
      5 C13         -7.7080   -13.5510   -17.3080 c6         1 7YQ      -0.060700
      6 C14        -10.2170   -14.4440   -17.3430 c3         1 7YQ       0.038700
      7 C15        -11.6790   -14.0000   -17.6320 c          1 7YQ       0.586100
      8 C16         -6.9370   -14.2680   -18.4550 c6         1 7YQ      -0.072400
      9 C17        -13.6490   -12.7460   -16.6570 c3         1 7YQ       0.104700
     10 C18         -5.5060   -14.6870   -18.0100 c6         1 7YQ      -0.071400
     11 C19        -14.5070   -13.4970   -15.6030 c3         1 7YQ      -0.070400
     12 C2          -5.7190   -22.2340   -19.8760 ca         1 7YQ      -0.085000
     13 C20        -14.6220   -15.0350   -15.8150 c5         1 7YQ      -0.156700
     14 C21        -15.3470   -15.4630   -17.1230 c5         1 7YQ      -0.094400
     15 C22        -15.7940   -16.9090   -16.7780 c5         1 7YQ       0.100000
     16 C23         -4.9120   -13.7660   -16.9060 c6         1 7YQ      -0.075400
     17 C24        -15.4350   -15.7490   -14.7280 c          1 7YQ       0.565000
     18 C25         -5.4190   -12.3130   -17.0510 c6         1 7YQ      -0.071400
     19 C26         -6.9700   -12.2210   -16.9450 c6         1 7YQ      -0.072400
     20 C27        -12.1810   -18.2600   -16.3380 c3         1 7YQ      -0.107767
     21 C28        -11.9770   -20.7860   -16.2070 c3         1 7YQ      -0.107767
     22 C29        -13.2630   -19.7500   -18.1350 c3         1 7YQ      -0.107767
     23 C3          -5.4980   -22.6310   -21.2050 ca         1 7YQ       0.119000
     24 C30        -10.5950   -18.5720   -18.9180 c3         1 7YQ       0.173300
     25 C31        -10.6600   -19.2820   -20.2880 c3         1 7YQ      -0.120100
     26 C34         -9.2170   -13.2850   -17.6250 c3         1 7YQ      -0.081400
     27 C4          -4.5350   -21.9740   -21.9880 ca         1 7YQ      -0.096000
     28 C5          -3.7900   -20.9160   -21.4380 ca         1 7YQ      -0.102000
     29 C6          -4.0110   -20.5160   -20.1080 ca         1 7YQ      -0.087000
     30 C7          -5.2250   -20.7390   -17.8750 c3         1 7YQ       0.229900
     31 C8         -13.6600   -11.2040   -16.4720 c3         1 7YQ       0.150600
     32 C9          -7.0100   -19.1810   -18.2850 c          1 7YQ       0.643100
     33 N10         -8.3530   -19.0500   -18.1080 ns         1 7YQ      -0.483900
     34 N13         -9.9200   -15.6610   -18.1260 ns         1 7YQ      -0.478900
     35 N16        -12.2650   -13.2460   -16.6360 ns         1 7YQ      -0.497900
     36 N23        -16.0950   -16.7690   -15.3560 ns         1 7YQ      -0.516900
     37 O26        -15.6700   -15.4060   -13.5800 o          1 7YQ      -0.556000
     38 O29         -6.3000   -18.3650   -18.8510 o          1 7YQ      -0.536000
     39 O33         -8.8470   -16.8240   -16.4890 o          1 7YQ      -0.614100
     40 O5         -10.8260   -19.5780   -17.8900 os         1 7YQ      -0.464000
     41 O8          -6.6040   -20.3530   -17.7230 os         1 7YQ      -0.456100
     42 O9         -14.9800   -10.6690   -16.6530 oh         1 7YQ      -0.656000
     43 Cl7         -6.4330   -23.9540   -21.8920 cl         1 7YQ      -0.210000
     44 H1          -8.7630   -17.5730   -19.5620 h1         1 7YQ       0.098700
     45 H2          -7.6910   -14.1980   -16.4200 hc         1 7YQ       0.045700
     46 H3         -10.1710   -14.6920   -16.2750 h1         1 7YQ       0.076700
     47 H4          -7.4680   -15.1520   -18.8210 hc         1 7YQ       0.040950
     48 H5          -6.8650   -13.5890   -19.3160 hc         1 7YQ       0.040950
     49 H6         -14.0810   -12.9460   -17.6460 h1         1 7YQ       0.092700
     50 H7          -4.8450   -14.6900   -18.8880 hc         1 7YQ       0.040200
     51 H8          -5.5220   -15.7210   -17.6380 hc         1 7YQ       0.040200
     52 H9         -14.0850   -13.2960   -14.6100 hc         1 7YQ       0.066200
     53 H10        -15.5150   -13.0660   -15.5930 hc         1 7YQ       0.066200
     54 H11         -6.4700   -22.7480   -19.2810 ha         1 7YQ       0.133000
     55 H12        -13.6240   -15.4870   -15.8040 hc         1 7YQ       0.090700
     56 H13        -14.7060   -15.4230   -18.0100 hc         1 7YQ       0.064700
     57 H14        -16.2200   -14.8290   -17.3190 hc         1 7YQ       0.064700
     58 H15        -16.6640   -17.2230   -17.3700 h1         1 7YQ       0.040700
     59 H16        -14.9840   -17.6300   -16.9450 h1         1 7YQ       0.040700
     60 H17         -3.8150   -13.7930   -16.9470 hc         1 7YQ       0.037700
     61 H18         -5.1920   -14.1500   -15.9150 hc         1 7YQ       0.037700
     62 H19         -5.0950   -11.9180   -18.0240 hc         1 7YQ       0.040200
     63 H20         -4.9540   -11.6710   -16.2900 hc         1 7YQ       0.040200
     64 H21         -7.2500   -11.9280   -15.9240 hc         1 7YQ       0.040950
     65 H22         -7.3160   -11.4070   -17.5970 hc         1 7YQ       0.040950
     66 H23        -12.3370   -17.3870   -16.9810 hc         1 7YQ       0.042922
     67 H24        -13.0270   -18.3100   -15.6430 hc         1 7YQ       0.042922
     68 H25        -11.2730   -18.0980   -15.7450 hc         1 7YQ       0.042922
     69 H26        -12.8800   -20.8750   -15.5920 hc         1 7YQ       0.042922
     70 H27        -11.8600   -21.7170   -16.7750 hc         1 7YQ       0.042922
     71 H28        -11.1160   -20.6860   -15.5340 hc         1 7YQ       0.042922
     72 H29        -13.3960   -18.8700   -18.7750 hc         1 7YQ       0.042922
     73 H30        -13.1130   -20.6290   -18.7740 hc         1 7YQ       0.042922
     74 H31        -14.1970   -19.8970   -17.5790 hc         1 7YQ       0.042922
     75 H32        -11.3490   -17.7750   -18.9100 h1         1 7YQ       0.051700
     76 H33        -10.3900   -18.5870   -21.0920 hc         1 7YQ       0.050033
     77 H34         -9.9670   -20.1300   -20.3220 hc         1 7YQ       0.050033
     78 H35        -11.6700   -19.6520   -20.4970 hc         1 7YQ       0.050033
     79 H36         -9.5530   -12.4280   -17.0270 hc         1 7YQ       0.056700
     80 H37         -9.3240   -12.9680   -18.6700 hc         1 7YQ       0.056700
     81 H38         -4.3660   -22.2840   -23.0160 ha         1 7YQ       0.129000
     82 H39         -3.0440   -20.4050   -22.0430 ha         1 7YQ       0.119000
     83 H40         -3.4330   -19.6930   -19.6940 ha         1 7YQ       0.118000
     84 H41         -4.9980   -21.5850   -17.2140 h1         1 7YQ       0.068700
     85 H42         -4.5520   -19.9170   -17.5950 h1         1 7YQ       0.068700
     86 H43        -13.2830   -10.9570   -15.4710 h1         1 7YQ       0.022700
     87 H44        -12.9750   -10.7560   -17.2040 h1         1 7YQ       0.022700
     88 H45         -8.8680   -19.8080   -17.6660 hn         1 7YQ       0.338500
     89 H46        -10.2690   -15.7030   -19.0780 hn         1 7YQ       0.334500
     90 H47        -11.6960   -13.0440   -15.8220 hn         1 7YQ       0.317500
     91 H48        -16.7590   -17.3240   -14.8280 hn         1 7YQ       0.323500
     92 H49        -14.9150    -9.6950   -16.5300 ho         1 7YQ       0.449000
     93 O38        -12.2760   -14.3060   -18.6560 o          1 7YQ      -0.610100
@<TRIPOS>BOND
     1     1    12 ar  
     2     1    29 ar  
     3     1    30 1   
     4     2    20 1   
     5     2    21 1   
     6     2    22 1   
     7     2    40 1   
     8     3     4 1   
     9     3    24 1   
    10     3    33 1   
    11     3    44 1   
    12     4    34 1   
    13     4    39 2   
    14     5     8 1   
    15     5    19 1   
    16     5    26 1   
    17     5    45 1   
    18     6     7 1   
    19     6    26 1   
    20     6    34 1   
    21     6    46 1   
    22     7    35 1   
    23     7    93 2   
    24     8    10 1   
    25     8    47 1   
    26     8    48 1   
    27     9    11 1   
    28     9    31 1   
    29     9    35 1   
    30     9    49 1   
    31    10    16 1   
    32    10    50 1   
    33    10    51 1   
    34    11    13 1   
    35    11    52 1   
    36    11    53 1   
    37    12    23 ar  
    38    12    54 1   
    39    13    14 1   
    40    13    17 1   
    41    13    55 1   
    42    14    15 1   
    43    14    56 1   
    44    14    57 1   
    45    15    36 1   
    46    15    58 1   
    47    15    59 1   
    48    16    18 1   
    49    16    60 1   
    50    16    61 1   
    51    17    36 1   
    52    17    37 2   
    53    18    19 1   
    54    18    62 1   
    55    18    63 1   
    56    19    64 1   
    57    19    65 1   
    58    20    66 1   
    59    20    67 1   
    60    20    68 1   
    61    21    69 1   
    62    21    70 1   
    63    21    71 1   
    64    22    72 1   
    65    22    73 1   
    66    22    74 1   
    67    23    27 ar  
    68    23    43 1   
    69    24    25 1   
    70    24    40 1   
    71    24    75 1   
    72    25    76 1   
    73    25    77 1   
    74    25    78 1   
    75    26    79 1   
    76    26    80 1   
    77    27    28 ar  
    78    27    81 1   
    79    28    29 ar  
    80    28    82 1   
    81    29    83 1   
    82    30    41 1   
    83    30    84 1   
    84    30    85 1   
    85    31    42 1   
    86    31    86 1   
    87    31    87 1   
    88    32    33 1   
    89    32    38 2   
    90    32    41 1   
    91    33    88 1   
    92    34    89 1   
    93    35    90 1   
    94    36    91 1   
    95    42    92 1   
@<TRIPOS>SUBSTRUCTURE
     1 7YQ         1 TEMP              0 ****  ****    0 ROOT
