@<TRIPOS>MOLECULE
7YR
   61    62     1     0     0
SMALL
abcg2


@<TRIPOS>ATOM
      1 C5          -4.9410    -1.7550     0.3930 c          1 7YR       0.589100
      2 O2          -5.0950    -2.0720     1.5610 o          1 7YR      -0.583100
      3 C4          -5.9650    -2.0710    -0.6850 c5         1 7YR       0.029700
      4 N1          -7.2530    -2.3880    -0.1330 ns         1 7YR      -0.497900
      5 C3          -5.5980    -3.3660    -1.4410 c5         1 7YR      -0.083400
      6 C2          -6.9530    -3.9780    -1.7780 c5         1 7YR      -0.173400
      7 C1          -7.8860    -3.4210    -0.7230 c          1 7YR       0.567000
      8 O1          -9.0120    -3.8080    -0.4650 o          1 7YR      -0.542000
      9 N2          -3.8450    -1.1410    -0.0690 ns         1 7YR      -0.502900
     10 C6          -2.7160    -0.8500     0.7680 c3         1 7YR       0.020000
     11 C7          -1.6120    -0.2180    -0.0630 c          1 7YR       0.595100
     12 O3          -1.7120    -0.0820    -1.2720 o          1 7YR      -0.613100
     13 N3          -0.5450     0.1600     0.6560 ns         1 7YR      -0.487900
     14 C8           0.6420     0.7450     0.0920 c3         1 7YR       0.025700
     15 C9           1.8510    -0.1270     0.4380 c          1 7YR       0.594100
     16 O4           1.8420    -0.8870     1.3880 o          1 7YR      -0.577100
     17 C10          0.8640     2.1810     0.5870 c3         1 7YR      -0.086400
     18 C11         -0.3030     3.0970     0.2480 c3         1 7YR      -0.090400
     19 C12         -0.0180     4.5380     0.6390 c3         1 7YR       0.220800
     20 N4          -1.1670     5.3670     0.3560 nu         1 7YR      -0.899400
     21 C13         -1.0860     6.7310     0.4570 c2         1 7YR       0.787100
     22 N6          -2.3170     7.3540     0.3980 nv         1 7YR      -1.068200
     23 N5           0.0450     7.3130     0.6160 n2         1 7YR      -0.890100
     24 N7           2.9030     0.0650    -0.3890 ns         1 7YR      -0.138000
     25 C14          4.1800    -0.5080    -0.3460 ca         1 7YR      -0.025000
     26 C19          5.1080    -0.0640    -1.2880 ca         1 7YR      -0.143500
     27 C18          6.3890    -0.5800    -1.3370 ca         1 7YR      -0.068000
     28 C17          6.7870    -1.5640    -0.4340 ca         1 7YR       0.175000
     29 N8           8.0640    -2.1720    -0.5480 nh         1 7YR      -0.262400
     30 O6           8.4810    -2.6230     0.6920 oh         1 7YR      -0.462800
     31 O5           8.9850    -1.2430    -1.0030 oh         1 7YR      -0.462800
     32 C16          5.8650    -2.0100     0.5060 ca         1 7YR      -0.068000
     33 C15          4.5780    -1.4940     0.5550 ca         1 7YR      -0.143500
     34 H23         -6.0320    -1.2300    -1.3860 h1         1 7YR       0.056700
     35 H24         -7.7230    -1.7830     0.5240 hn         1 7YR       0.337500
     36 H25         -4.9820    -3.1600    -2.3130 hc         1 7YR       0.064700
     37 H26         -5.0400    -4.0350    -0.7840 hc         1 7YR       0.064700
     38 H27         -7.3140    -3.6510    -2.7570 hc         1 7YR       0.078200
     39 H28         -6.9570    -5.0670    -1.7760 hc         1 7YR       0.078200
     40 H22         -3.7710    -0.8920    -1.0440 hn         1 7YR       0.342500
     41 H20         -2.9910    -0.1730     1.5830 h1         1 7YR       0.073200
     42 H21         -2.3260    -1.7600     1.2340 h1         1 7YR       0.073200
     43 H19         -0.5510    -0.0050     1.6520 hn         1 7YR       0.336500
     44 H12          0.5140     0.7660    -0.9930 h1         1 7YR       0.095700
     45 H1           1.0360     2.1720     1.6670 hc         1 7YR       0.057200
     46 H2           1.7780     2.5700     0.1300 hc         1 7YR       0.057200
     47 H13         -0.5150     3.0470    -0.8240 hc         1 7YR       0.049700
     48 H14         -1.2020     2.7490     0.7650 hc         1 7YR       0.049700
     49 H3           0.2690     4.5880     1.6980 h1         1 7YR       0.052700
     50 H4           0.8340     4.9150     0.0710 h1         1 7YR       0.052700
     51 H15         -2.0500     4.9690     0.6360 hn         1 7YR       0.467000
     52 H16         -3.0200     6.8970    -0.1630 hn         1 7YR       0.453000
     53 H17         -2.2870     8.3450     0.2220 hn         1 7YR       0.453000
     54 H18         -0.0650     8.3190     0.5840 hn         1 7YR       0.379400
     55 H5           2.7610     0.7170    -1.1460 hn         1 7YR       0.154000
     56 H6           4.8270     0.7020    -2.0020 ha         1 7YR       0.130500
     57 H7           7.0690    -0.2030    -2.0870 ha         1 7YR       0.130500
     58 H8           6.1300    -2.7770     1.2200 ha         1 7YR       0.130500
     59 H9           3.9000    -1.8760     1.3000 ha         1 7YR       0.130500
     60 H10          8.8190    -3.5110     0.5250 ho         1 7YR       0.459500
     61 H11          9.4830    -1.7100    -1.6850 ho         1 7YR       0.459500
@<TRIPOS>BOND
     1     1     2 2   
     2     1     3 1   
     3     1     9 1   
     4     3     4 1   
     5     3     5 1   
     6     3    34 1   
     7     4     7 1   
     8     4    35 1   
     9     5     6 1   
    10     5    36 1   
    11     5    37 1   
    12     6     7 1   
    13     6    38 1   
    14     6    39 1   
    15     7     8 2   
    16     9    10 1   
    17     9    40 1   
    18    10    11 1   
    19    10    41 1   
    20    10    42 1   
    21    11    12 2   
    22    11    13 1   
    23    13    14 1   
    24    13    43 1   
    25    14    15 1   
    26    14    17 1   
    27    14    44 1   
    28    15    16 2   
    29    15    24 1   
    30    17    18 1   
    31    17    45 1   
    32    17    46 1   
    33    18    19 1   
    34    18    47 1   
    35    18    48 1   
    36    19    20 1   
    37    19    49 1   
    38    19    50 1   
    39    20    21 1   
    40    20    51 1   
    41    21    22 1   
    42    21    23 2   
    43    22    52 1   
    44    22    53 1   
    45    23    54 1   
    46    24    25 1   
    47    24    55 1   
    48    25    26 ar  
    49    25    33 ar  
    50    26    27 ar  
    51    26    56 1   
    52    27    28 ar  
    53    27    57 1   
    54    28    29 1   
    55    28    32 ar  
    56    29    30 1   
    57    29    31 1   
    58    30    60 1   
    59    31    61 1   
    60    32    33 ar  
    61    32    58 1   
    62    33    59 1   
@<TRIPOS>SUBSTRUCTURE
     1 7YR         1 TEMP              0 ****  ****    0 ROOT
