@<TRIPOS>MOLECULE
7YR
   61    62     1     0     0
SMALL
No Charge or Current Charge


@<TRIPOS>ATOM
      1 C5          -5.1630    -1.7770     0.6360 c          1 7YR       0.589100
      2 O2          -5.2310    -2.2430     1.7670 o          1 7YR      -0.583100
      3 C4          -6.2970    -1.7040    -0.4410 c5         1 7YR       0.029700
      4 N1          -7.5570    -2.1940     0.1610 ns         1 7YR      -0.497900
      5 C3          -6.0700    -2.7600    -1.5740 c5         1 7YR      -0.083400
      6 C2          -7.5370    -3.0570    -1.9710 c5         1 7YR      -0.173400
      7 C1          -8.2430    -3.0810    -0.6230 c          1 7YR       0.567000
      8 O1          -9.0490    -3.8820    -0.1810 o          1 7YR      -0.542000
      9 N2          -4.0230    -1.1840     0.1390 ns         1 7YR      -0.502900
     10 C6          -2.7510    -1.0580     0.8850 c3         1 7YR       0.020000
     11 C7          -1.6550    -0.3560     0.0500 c          1 7YR       0.595100
     12 O3          -1.8380     0.0370    -1.0960 o          1 7YR      -0.613100
     13 N3          -0.4440    -0.2080     0.6920 ns         1 7YR      -0.487900
     14 C8           0.7620     0.4330     0.1090 c3         1 7YR       0.025700
     15 C9           2.0400    -0.3750     0.4860 c          1 7YR       0.594100
     16 O4           2.0310    -1.2370     1.3610 o          1 7YR      -0.577100
     17 C10          0.8770     1.9200     0.5510 c3         1 7YR      -0.086400
     18 C11         -0.3010     2.8200     0.1030 c3         1 7YR      -0.090400
     19 C12         -0.1080     4.2990     0.4930 c3         1 7YR       0.220800
     20 N4          -1.2450     5.1060     0.0320 nu         1 7YR      -0.899400
     21 C13         -1.3530     6.4100     0.2240 c2         1 7YR       0.787100
     22 N6          -2.5080     6.7600    -0.2770 nv         1 7YR      -1.068200
     23 N5          -0.5360     7.1180     0.8420 n2         1 7YR      -0.890100
     24 N7           3.1640    -0.0310    -0.2570 ns         1 7YR      -0.138000
     25 C14          4.5070    -0.5010    -0.2440 ca         1 7YR      -0.025000
     26 C19          5.4100     0.0820    -1.1510 ca         1 7YR      -0.143500
     27 C18          6.7540    -0.3300    -1.1960 ca         1 7YR      -0.068000
     28 C17          7.2320    -1.3350    -0.3290 ca         1 7YR       0.175000
     29 N8           8.5950    -1.7630    -0.3810 nh         1 7YR      -0.262400
     30 O6           9.1850    -2.4070     0.7170 oh         1 7YR      -0.462800
     31 O5           9.5870    -0.9390    -0.9320 oh         1 7YR      -0.462800
     32 C16          6.3220    -1.9230     0.5750 ca         1 7YR      -0.068000
     33 C15          4.9760    -1.5120     0.6220 ca         1 7YR      -0.143500
     34 H23         -6.3920    -0.6800    -0.8280 h1         1 7YR       0.056700
     35 H24         -7.7750    -2.1690     1.1510 hn         1 7YR       0.337500
     36 H25         -5.4650    -2.3760    -2.4040 hc         1 7YR       0.064700
     37 H26         -5.5780    -3.6640    -1.1920 hc         1 7YR       0.064700
     38 H27         -7.9140    -2.1980    -2.5390 hc         1 7YR       0.078200
     39 H28         -7.6970    -3.9820    -2.5350 hc         1 7YR       0.078200
     40 H22         -4.0640    -0.8160    -0.8070 hn         1 7YR       0.342500
     41 H20         -2.9150    -0.4730     1.7990 h1         1 7YR       0.073200
     42 H21         -2.3860    -2.0540     1.1640 h1         1 7YR       0.073200
     43 H19         -0.3720    -0.5980     1.6260 hn         1 7YR       0.336500
     44 H12          0.6900     0.3980    -0.9870 h1         1 7YR       0.095700
     45 H1           0.9660     1.9630     1.6440 hc         1 7YR       0.057200
     46 H2           1.8050     2.3440     0.1460 hc         1 7YR       0.057200
     47 H13         -0.4160     2.7460    -0.9860 hc         1 7YR       0.049700
     48 H14         -1.2320     2.4550     0.5540 hc         1 7YR       0.049700
     49 H3          -0.0090     4.3740     1.5860 h1         1 7YR       0.052700
     50 H4           0.8240     4.6720     0.0440 h1         1 7YR       0.052700
     51 H15         -2.1480     4.6520     0.0270 hn         1 7YR       0.467000
     52 H16         -2.6770     6.2840    -1.1520 hn         1 7YR       0.453000
     53 H17         -2.6360     7.7610    -0.3360 hn         1 7YR       0.453000
     54 H18         -0.9110     8.0710     0.8790 hn         1 7YR       0.379400
     55 H5           2.9980     0.6960    -0.9410 hn         1 7YR       0.154000
     56 H6           5.0720     0.8610    -1.8310 ha         1 7YR       0.130500
     57 H7           7.4260     0.1360    -1.9110 ha         1 7YR       0.130500
     58 H8           6.6560    -2.7080     1.2490 ha         1 7YR       0.130500
     59 H9           4.3200    -1.9970     1.3370 ha         1 7YR       0.130500
     60 H10          9.4900    -3.2480     0.3050 ho         1 7YR       0.459500
     61 H11          9.9610    -1.5270    -1.6280 ho         1 7YR       0.459500
@<TRIPOS>BOND
     1     1     2 2   
     2     1     3 1   
     3     1     9 1   
     4     3     4 1   
     5     3     5 1   
     6     3    34 1   
     7     4     7 1   
     8     4    35 1   
     9     5     6 1   
    10     5    36 1   
    11     5    37 1   
    12     6     7 1   
    13     6    38 1   
    14     6    39 1   
    15     7     8 2   
    16     9    10 1   
    17     9    40 1   
    18    10    11 1   
    19    10    41 1   
    20    10    42 1   
    21    11    12 2   
    22    11    13 1   
    23    13    14 1   
    24    13    43 1   
    25    14    15 1   
    26    14    17 1   
    27    14    44 1   
    28    15    16 2   
    29    15    24 1   
    30    17    18 1   
    31    17    45 1   
    32    17    46 1   
    33    18    19 1   
    34    18    47 1   
    35    18    48 1   
    36    19    20 1   
    37    19    49 1   
    38    19    50 1   
    39    20    21 1   
    40    20    51 1   
    41    21    22 1   
    42    21    23 2   
    43    22    52 1   
    44    22    53 1   
    45    23    54 1   
    46    24    25 1   
    47    24    55 1   
    48    25    26 ar  
    49    25    33 ar  
    50    26    27 ar  
    51    26    56 1   
    52    27    28 ar  
    53    27    57 1   
    54    28    29 1   
    55    28    32 ar  
    56    29    30 1   
    57    29    31 1   
    58    30    60 1   
    59    31    61 1   
    60    32    33 ar  
    61    32    58 1   
    62    33    59 1   
@<TRIPOS>SUBSTRUCTURE
     1 7YR         1 TEMP              0 ****  ****    0 ROOT
