@<TRIPOS>MOLECULE
7YS
   54    57     1     0     0
SMALL
No Charge or Current Charge


@<TRIPOS>ATOM
      1 N3          -1.9930   -22.9010   -18.0220 nb         1 7YS      -0.706000
      2 C4          -2.0760   -21.9310   -17.0670 ca         1 7YS       0.308900
      3 C5          -2.9840   -20.8190   -17.1270 ca         1 7YS       0.373500
      4 C7          -3.0230   -19.8230   -16.0330 cc         1 7YS      -0.230500
      5 C8          -2.7220   -19.9750   -14.6610 cc         1 7YS       0.276300
      6 C15         -4.7600   -18.0040   -20.1570 ca         1 7YS      -0.126600
      7 C17         -5.4880   -20.4500   -20.4700 c3         1 7YS       0.228600
      8 C20         -3.7100   -19.2770   -21.9630 ca         1 7YS       0.091000
      9 C21         -2.9420   -18.1420   -22.2930 ca         1 7YS       0.180000
     10 C22         -3.0750   -16.9510   -21.5720 ca         1 7YS      -0.140000
     11 C1          -3.7780   -21.6350   -19.1450 ca         1 7YS       0.495300
     12 C2          -2.8400   -22.7410   -19.0440 ca         1 7YS       0.553900
     13 N6          -3.8490   -20.6760   -18.1750 nb         1 7YS      -0.706000
     14 N9          -2.7560   -18.8490   -13.9850 nd         1 7YS      -0.531800
     15 N10         -3.0880   -17.9120   -14.9490 na         1 7YS       0.122800
     16 C11         -3.3170   -18.4890   -16.2120 cd         1 7YS      -0.104300
     17 C12         -3.6950   -17.6930   -17.4480 c3         1 7YS       0.173300
     18 N13         -5.1610   -17.5960   -17.7150 n          1 7YS      -0.392800
     19 C14         -5.7040   -17.8840   -18.9880 c          1 7YS       0.618700
     20 C16         -4.6450   -19.2200   -20.8890 ca         1 7YS      -0.034300
     21 O18         -4.6400   -21.5860   -20.2300 os         1 7YS      -0.472300
     22 C19         -6.5490   -20.8570   -21.5130 c3         1 7YS      -0.089100
     23 C23         -3.9780   -16.8820   -20.5050 ca         1 7YS      -0.071000
     24 F24         -2.0530   -18.1920   -23.3130 f          1 7YS      -0.162000
     25 Cl25        -3.4390   -20.7500   -22.9100 cl         1 7YS      -0.161000
     26 O26         -6.9140   -17.9770   -19.1600 o          1 7YS      -0.607100
     27 C27         -6.0690   -17.4420   -16.5520 c3         1 7YS       0.077300
     28 C29         -1.7210   -15.8170   -14.5670 c3         1 7YS       0.139600
     29 O30         -1.1710   -15.7300   -15.8930 oh         1 7YS      -0.674000
     30 C31         -2.4280   -21.2830   -13.9780 c3         1 7YS      -0.124400
     31 N32         -2.6810   -23.7650   -19.9280 nv         1 7YS      -1.047900
     32 H1          -1.3670   -22.0300   -16.2510 h4         1 7YS       0.031100
     33 H2          -6.0450   -20.2440   -19.5490 h1         1 7YS       0.082700
     34 H3          -2.4740   -16.0850   -21.8390 ha         1 7YS       0.140000
     35 H4          -3.7570   -15.9280   -15.2880 h1         1 7YS       0.074200
     36 H5          -3.5670   -16.3860   -13.5930 h1         1 7YS       0.074200
     37 H6          -3.1710   -18.1500   -18.2950 h1         1 7YS       0.073700
     38 H7          -3.2960   -16.6750   -17.3630 h1         1 7YS       0.073700
     39 H8          -7.1560   -21.6850   -21.1310 hc         1 7YS       0.056700
     40 H9          -7.2190   -20.0130   -21.7170 hc         1 7YS       0.056700
     41 H10         -6.1010   -21.1730   -22.4590 hc         1 7YS       0.056700
     42 H11         -4.0770   -15.9530   -19.9460 ha         1 7YS       0.127000
     43 H12         -6.2420   -18.4210   -16.0890 h1         1 7YS       0.048700
     44 H13         -5.6340   -16.7650   -15.8100 h1         1 7YS       0.048700
     45 H14         -7.0320   -17.0190   -16.8650 h1         1 7YS       0.048700
     46 H15         -1.0590   -16.3980   -13.9100 h1         1 7YS       0.042700
     47 H16         -1.8180   -14.8130   -14.1330 h1         1 7YS       0.042700
     48 H17         -0.2810   -15.3170   -15.8110 ho         1 7YS       0.452000
     49 H18         -2.7020   -21.2390   -12.9180 hc         1 7YS       0.051033
     50 H19         -2.9980   -22.1050   -14.4250 hc         1 7YS       0.051033
     51 H20         -1.3590   -21.5210   -14.0320 hc         1 7YS       0.051033
     52 H21         -2.1830   -24.5770   -19.5820 hn         1 7YS       0.484500
     53 H22         -3.4220   -23.9250   -20.6050 hn         1 7YS       0.484500
     54 C28         -3.1180   -16.4770   -14.5900 c3         1 7YS       0.087600
@<TRIPOS>BOND
     1     1     2 ar  
     2     1    12 ar  
     3     2     3 ar  
     4     2    32 1   
     5     3     4 1   
     6     3    13 ar  
     7     4     5 1   
     8     4    16 2   
     9     5    14 2   
    10     5    30 1   
    11     6    19 1   
    12     6    20 ar  
    13     6    23 ar  
    14     7    20 1   
    15     7    21 1   
    16     7    22 1   
    17     7    33 1   
    18     8     9 ar  
    19     8    20 ar  
    20     8    25 1   
    21     9    10 ar  
    22     9    24 1   
    23    10    23 ar  
    24    10    34 1   
    25    11    12 ar  
    26    11    13 ar  
    27    11    21 1   
    28    12    31 1   
    29    14    15 1   
    30    15    16 1   
    31    15    54 1   
    32    16    17 1   
    33    17    18 1   
    34    17    37 1   
    35    17    38 1   
    36    18    19 1   
    37    18    27 1   
    38    19    26 2   
    39    22    39 1   
    40    22    40 1   
    41    22    41 1   
    42    23    42 1   
    43    27    43 1   
    44    27    44 1   
    45    27    45 1   
    46    28    29 1   
    47    28    46 1   
    48    28    47 1   
    49    28    54 1   
    50    29    48 1   
    51    30    49 1   
    52    30    50 1   
    53    30    51 1   
    54    31    52 1   
    55    31    53 1   
    56    35    54 1   
    57    36    54 1   
@<TRIPOS>SUBSTRUCTURE
     1 7YS         1 TEMP              0 ****  ****    0 ROOT
