@<TRIPOS>MOLECULE
7YS
   54    57     1     0     0
SMALL
abcg2


@<TRIPOS>ATOM
      1 N3          -2.1020   -22.9240   -18.0190 nb         1 7YS      -0.706000
      2 C4          -2.1110   -21.9680   -17.0750 ca         1 7YS       0.308900
      3 C5          -2.9520   -20.8680   -17.1300 ca         1 7YS       0.373500
      4 C7          -2.9750   -19.8390   -16.0920 cc         1 7YS      -0.230500
      5 C8          -2.6560   -19.9870   -14.7140 cc         1 7YS       0.276300
      6 C15         -4.6550   -18.0180   -20.1160 ca         1 7YS      -0.126600
      7 C17         -5.3870   -20.4170   -20.3810 c3         1 7YS       0.228600
      8 C20         -3.6340   -19.2880   -21.8730 ca         1 7YS       0.091000
      9 C21         -2.9070   -18.1570   -22.2300 ca         1 7YS       0.180000
     10 C22         -3.0490   -16.9560   -21.5680 ca         1 7YS      -0.140000
     11 C1          -3.7740   -21.6550   -19.1160 ca         1 7YS       0.495300
     12 C2          -2.9230   -22.7980   -19.0470 ca         1 7YS       0.553900
     13 N6          -3.7840   -20.7330   -18.1980 nb         1 7YS      -0.706000
     14 N9          -2.7660   -18.8220   -14.0820 nd         1 7YS      -0.531800
     15 N10         -3.1480   -17.9230   -15.0140 na         1 7YS       0.122800
     16 C11         -3.2930   -18.4880   -16.2400 cd         1 7YS      -0.104300
     17 C12         -3.6850   -17.7100   -17.4530 c3         1 7YS       0.173300
     18 N13         -5.1300   -17.7350   -17.7370 n          1 7YS      -0.392800
     19 C14         -5.6330   -17.8810   -18.9800 c          1 7YS       0.618700
     20 C16         -4.5360   -19.2330   -20.8040 ca         1 7YS      -0.034300
     21 O18         -4.5850   -21.6020   -20.1950 os         1 7YS      -0.472300
     22 C19         -6.4800   -20.7630   -21.3770 c3         1 7YS      -0.089100
     23 C23         -3.9290   -16.8950   -20.5010 ca         1 7YS      -0.071000
     24 F24         -2.0380   -18.2350   -23.2560 f          1 7YS      -0.162000
     25 CL25        -3.3580   -20.7310   -22.8070 cl         1 7YS      -0.161000
     26 O26         -6.8440   -17.8780   -19.2270 o          1 7YS      -0.607100
     27 C27         -6.0370   -17.4740   -16.6270 c3         1 7YS       0.077300
     28 C29         -1.8730   -15.8490   -14.5740 c3         1 7YS       0.139600
     29 O30         -1.3460   -15.7820   -15.8980 oh         1 7YS      -0.674000
     30 C31         -2.2760   -21.2120   -13.9500 c3         1 7YS      -0.124400
     31 N32         -2.9190   -23.7220   -20.0520 nv         1 7YS      -1.047900
     32 H1          -1.4070   -22.0920   -16.2660 h4         1 7YS       0.031100
     33 H2          -5.8420   -20.1830   -19.4230 h1         1 7YS       0.082700
     34 H3          -2.4690   -16.0990   -21.8830 ha         1 7YS       0.140000
     35 H4          -3.8770   -16.0000   -15.3260 h1         1 7YS       0.074200
     36 H5          -3.6940   -16.4830   -13.6420 h1         1 7YS       0.074200
     37 H6          -3.1660   -18.1350   -18.3040 h1         1 7YS       0.073700
     38 H7          -3.3570   -16.6760   -17.3480 h1         1 7YS       0.073700
     39 H8          -7.0670   -21.6000   -20.9980 hc         1 7YS       0.056700
     40 H9          -7.1360   -19.9000   -21.4930 hc         1 7YS       0.056700
     41 H10         -6.0710   -21.0290   -22.3490 hc         1 7YS       0.056700
     42 H11         -4.0420   -15.9700   -19.9510 ha         1 7YS       0.127000
     43 H12         -5.8220   -18.1510   -15.8020 h1         1 7YS       0.048700
     44 H13         -5.9300   -16.4440   -16.2790 h1         1 7YS       0.048700
     45 H14         -7.0560   -17.6300   -16.9640 h1         1 7YS       0.048700
     46 H15         -1.2040   -16.4160   -13.9180 h1         1 7YS       0.042700
     47 H16         -2.0050   -14.8460   -14.1540 h1         1 7YS       0.042700
     48 H17         -0.4290   -15.4860   -15.8490 ho         1 7YS       0.452000
     49 H18         -2.4240   -21.0410   -12.8840 hc         1 7YS       0.051033
     50 H19         -2.8760   -22.0710   -14.2550 hc         1 7YS       0.051033
     51 H20         -1.2270   -21.4760   -14.1060 hc         1 7YS       0.051033
     52 H21         -2.4960   -24.6140   -19.8440 hn         1 7YS       0.484500
     53 H22         -3.7150   -23.7420   -20.6680 hn         1 7YS       0.484500
     54 C28         -3.2300   -16.5230   -14.6270 c3         1 7YS       0.087600
@<TRIPOS>BOND
     1     1     2 ar  
     2     1    12 ar  
     3     2     3 ar  
     4     2    32 1   
     5     3     4 1   
     6     3    13 ar  
     7     4     5 1   
     8     4    16 2   
     9     5    14 2   
    10     5    30 1   
    11     6    19 1   
    12     6    20 ar  
    13     6    23 ar  
    14     7    20 1   
    15     7    21 1   
    16     7    22 1   
    17     7    33 1   
    18     8     9 ar  
    19     8    20 ar  
    20     8    25 1   
    21     9    10 ar  
    22     9    24 1   
    23    10    23 ar  
    24    10    34 1   
    25    11    12 ar  
    26    11    13 ar  
    27    11    21 1   
    28    12    31 1   
    29    14    15 1   
    30    15    16 1   
    31    15    54 1   
    32    16    17 1   
    33    17    18 1   
    34    17    37 1   
    35    17    38 1   
    36    18    19 1   
    37    18    27 1   
    38    19    26 2   
    39    22    39 1   
    40    22    40 1   
    41    22    41 1   
    42    23    42 1   
    43    27    43 1   
    44    27    44 1   
    45    27    45 1   
    46    28    29 1   
    47    28    46 1   
    48    28    47 1   
    49    28    54 1   
    50    29    48 1   
    51    30    49 1   
    52    30    50 1   
    53    30    51 1   
    54    31    52 1   
    55    31    53 1   
    56    35    54 1   
    57    36    54 1   
@<TRIPOS>SUBSTRUCTURE
     1 7YS         1 TEMP              0 ****  ****    0 ROOT
