@<TRIPOS>MOLECULE
7YT
   48    51     1     0     0
SMALL
No Charge or Current Charge


@<TRIPOS>ATOM
      1 CAP        -19.2530    -8.1840    40.3470 c5         1 7YT       0.162300
      2 CAQ        -18.8800    -9.0630    39.1810 ca         1 7YT      -0.160300
      3 CAW        -17.6990    -9.0070    38.4270 ca         1 7YT      -0.048000
      4 CAV        -17.5680    -9.9340    37.3780 ca         1 7YT      -0.162000
      5 CAU        -18.6060   -10.8570    37.1380 ca         1 7YT       0.342900
      6 NAT        -19.7430   -10.8980    37.8760 nb         1 7YT      -0.643000
      7 CAR        -19.8550   -10.0000    38.8830 ca         1 7YT       0.333300
      8 CAS        -21.0310    -9.8780    39.8190 c5         1 7YT       0.070700
      9 NAO        -20.5990    -8.7400    40.6990 n          1 7YT      -0.447800
     10 CAN        -21.3990    -8.2560    41.7490 c          1 7YT       0.672100
     11 OAX        -22.4910    -8.7590    41.9800 o          1 7YT      -0.621100
     12 NAM        -20.8540    -7.2000    42.4670 ns         1 7YT      -0.161000
     13 CAL        -21.3290    -6.4430    43.5730 ca         1 7YT       0.013000
     14 CAY        -22.5830    -6.6430    44.1810 ca         1 7YT      -0.163500
     15 CAZ        -22.9840    -5.8520    45.2720 ca         1 7YT      -0.052500
     16 CAK        -20.4920    -5.4350    44.0780 ca         1 7YT      -0.163500
     17 CAJ        -20.8880    -4.6410    45.1680 ca         1 7YT      -0.052500
     18 CAI        -22.1420    -4.8400    45.7920 ca         1 7YT      -0.158900
     19 CAB        -22.6010    -3.9930    46.9570 ce         1 7YT       0.410900
     20 NAC        -23.8270    -4.1070    47.3890 n2         1 7YT      -0.445300
     21 NAD        -24.1790    -3.7590    48.6870 n          1 7YT      -0.183800
     22 CAH        -25.2220    -4.5060    49.4180 c3         1 7YT       0.110300
     23 CAE        -23.5110    -2.6900    49.3470 c          1 7YT       0.545000
     24 OAF        -23.7640    -2.3600    50.4990 o          1 7YT      -0.545000
     25 CAG        -22.3890    -2.0080    48.5540 c6         1 7YT      -0.161400
     26 CAA        -21.6160    -3.0310    47.6700 c6         1 7YT      -0.130000
     27 CBA        -20.5910    -3.8370    48.5190 c3         1 7YT      -0.087100
     28 H1         -18.5370    -8.2910    41.1740 h1         1 7YT       0.054200
     29 H2         -19.3110    -7.1290    40.0500 h1         1 7YT       0.054200
     30 H3         -16.9190    -8.2790    38.6430 ha         1 7YT       0.124000
     31 H4         -16.6780    -9.9440    36.7550 ha         1 7YT       0.128000
     32 H5         -18.5250   -11.5830    36.3300 h4         1 7YT       0.026100
     33 H6         -21.9510    -9.6430    39.2680 h1         1 7YT       0.083200
     34 H7         -21.1800   -10.8030    40.3890 h1         1 7YT       0.083200
     35 H8         -19.9420    -6.9120    42.1430 hn         1 7YT       0.147000
     36 H9         -23.2680    -7.4060    43.8260 ha         1 7YT       0.132000
     37 H10        -23.9610    -6.0410    45.7120 ha         1 7YT       0.123000
     38 H11        -19.5200    -5.2590    43.6210 ha         1 7YT       0.132000
     39 H12        -20.2000    -3.8750    45.5120 ha         1 7YT       0.123000
     40 H13        -25.6440    -5.2890    48.7760 h1         1 7YT       0.050367
     41 H14        -24.7870    -4.9730    50.3110 h1         1 7YT       0.050367
     42 H15        -26.0240    -3.8220    49.7210 h1         1 7YT       0.050367
     43 H16        -21.7490    -1.4050    49.2110 hc         1 7YT       0.081200
     44 H17        -22.8960    -1.3300    47.8540 hc         1 7YT       0.081200
     45 H18        -21.0450    -2.4610    46.9270 hc         1 7YT       0.067700
     46 H19        -19.8760    -3.1700    49.0150 hc         1 7YT       0.044700
     47 H20        -21.0920    -4.4260    49.2980 hc         1 7YT       0.044700
     48 H21        -20.0130    -4.5350    47.9010 hc         1 7YT       0.044700
@<TRIPOS>BOND
     1     1     2 1   
     2     1     9 1   
     3     1    28 1   
     4     1    29 1   
     5     2     3 ar  
     6     2     7 ar  
     7     3     4 ar  
     8     3    30 1   
     9     4     5 ar  
    10     4    31 1   
    11     5     6 ar  
    12     5    32 1   
    13     6     7 ar  
    14     7     8 1   
    15     8     9 1   
    16     8    33 1   
    17     8    34 1   
    18     9    10 1   
    19    10    11 2   
    20    10    12 1   
    21    12    13 1   
    22    12    35 1   
    23    13    14 ar  
    24    13    16 ar  
    25    14    15 ar  
    26    14    36 1   
    27    15    18 ar  
    28    15    37 1   
    29    16    17 ar  
    30    16    38 1   
    31    17    18 ar  
    32    17    39 1   
    33    18    19 1   
    34    19    20 2   
    35    19    26 1   
    36    20    21 1   
    37    21    22 1   
    38    21    23 1   
    39    22    40 1   
    40    22    41 1   
    41    22    42 1   
    42    23    24 2   
    43    23    25 1   
    44    25    26 1   
    45    25    43 1   
    46    25    44 1   
    47    26    27 1   
    48    26    45 1   
    49    27    46 1   
    50    27    47 1   
    51    27    48 1   
@<TRIPOS>SUBSTRUCTURE
     1 7YT         1 TEMP              0 ****  ****    0 ROOT
