@<TRIPOS>MOLECULE
7YT
   48    51     1     0     0
SMALL
abcg2


@<TRIPOS>ATOM
      1 CAP        -19.1690    -8.2040    40.3970 c5         1 7YT       0.162300
      2 CAQ        -18.8480    -9.0800    39.2250 ca         1 7YT      -0.160300
      3 CAW        -17.6660    -9.2390    38.5230 ca         1 7YT      -0.048000
      4 CAV        -17.6680   -10.1460    37.4670 ca         1 7YT      -0.162000
      5 CAU        -18.8360   -10.8410    37.1670 ca         1 7YT       0.342900
      6 NAT        -19.9830   -10.6890    37.8420 nb         1 7YT      -0.643000
      7 CAR        -19.9630    -9.8190    38.8450 ca         1 7YT       0.333300
      8 CAS        -21.1420    -9.5060    39.7190 c5         1 7YT       0.070700
      9 NAO        -20.5840    -8.5200    40.6490 n          1 7YT      -0.447800
     10 CAN        -21.3530    -8.0180    41.6480 c          1 7YT       0.672100
     11 OAX        -22.5270    -8.3630    41.7980 o          1 7YT      -0.621100
     12 NAM        -20.7160    -7.1030    42.4620 ns         1 7YT      -0.161000
     13 CAL        -21.2180    -6.4310    43.5780 ca         1 7YT       0.013000
     14 CAY        -22.4750    -6.6690    44.1520 ca         1 7YT      -0.163500
     15 CAZ        -22.8690    -5.9550    45.2690 ca         1 7YT      -0.052500
     16 CAK        -20.3910    -5.4620    44.1590 ca         1 7YT      -0.163500
     17 CAJ        -20.8010    -4.7530    45.2730 ca         1 7YT      -0.052500
     18 CAI        -22.0510    -4.9830    45.8620 ca         1 7YT      -0.158900
     19 CAB        -22.4820    -4.2480    47.0630 ce         1 7YT       0.410900
     20 NAC        -23.5550    -4.6430    47.6530 n2         1 7YT      -0.445300
     21 NAD        -23.9820    -3.9810    48.7910 n          1 7YT      -0.183800
     22 CAH        -25.0340    -4.6550    49.5410 c3         1 7YT       0.110300
     23 CAE        -23.6220    -2.7120    49.1260 c          1 7YT       0.545000
     24 OAF        -24.1210    -2.1400    50.0950 o          1 7YT      -0.545000
     25 CAG        -22.6210    -2.0730    48.2030 c6         1 7YT      -0.161400
     26 CAA        -21.6630    -3.1020    47.6100 c6         1 7YT      -0.130000
     27 CBA        -20.6530    -3.6210    48.6460 c3         1 7YT      -0.087100
     28 H1         -18.5460    -8.4440    41.2650 h1         1 7YT       0.054200
     29 H2         -19.0300    -7.1440    40.1610 h1         1 7YT       0.054200
     30 H3         -16.7730    -8.6840    38.7820 ha         1 7YT       0.124000
     31 H4         -16.7760   -10.3160    36.8800 ha         1 7YT       0.128000
     32 H5         -18.8510   -11.5510    36.3470 h4         1 7YT       0.026100
     33 H6         -21.9760    -9.0900    39.1470 h1         1 7YT       0.083200
     34 H7         -21.5090   -10.3900    40.2460 h1         1 7YT       0.083200
     35 H8         -19.7730    -6.8470    42.2180 hn         1 7YT       0.147000
     36 H9         -23.1290    -7.4050    43.7170 ha         1 7YT       0.132000
     37 H10        -23.8430    -6.1500    45.6960 ha         1 7YT       0.123000
     38 H11        -19.4170    -5.2670    43.7280 ha         1 7YT       0.132000
     39 H12        -20.1240    -4.0180    45.6860 ha         1 7YT       0.123000
     40 H13        -25.1620    -5.6430    49.1080 h1         1 7YT       0.050367
     41 H14        -24.7500    -4.7470    50.5880 h1         1 7YT       0.050367
     42 H15        -25.9720    -4.1000    49.4790 h1         1 7YT       0.050367
     43 H16        -22.0870    -1.2990    48.7520 hc         1 7YT       0.081200
     44 H17        -23.1890    -1.5830    47.4040 hc         1 7YT       0.081200
     45 H18        -21.1150    -2.6230    46.8000 hc         1 7YT       0.067700
     46 H19        -20.0640    -2.7900    49.0380 hc         1 7YT       0.044700
     47 H20        -21.1610    -4.1060    49.4830 hc         1 7YT       0.044700
     48 H21        -19.9730    -4.3450    48.1980 hc         1 7YT       0.044700
@<TRIPOS>BOND
     1     1     2 1   
     2     1     9 1   
     3     1    28 1   
     4     1    29 1   
     5     2     3 ar  
     6     2     7 ar  
     7     3     4 ar  
     8     3    30 1   
     9     4     5 ar  
    10     4    31 1   
    11     5     6 ar  
    12     5    32 1   
    13     6     7 ar  
    14     7     8 1   
    15     8     9 1   
    16     8    33 1   
    17     8    34 1   
    18     9    10 1   
    19    10    11 2   
    20    10    12 1   
    21    12    13 1   
    22    12    35 1   
    23    13    14 ar  
    24    13    16 ar  
    25    14    15 ar  
    26    14    36 1   
    27    15    18 ar  
    28    15    37 1   
    29    16    17 ar  
    30    16    38 1   
    31    17    18 ar  
    32    17    39 1   
    33    18    19 1   
    34    19    20 2   
    35    19    26 1   
    36    20    21 1   
    37    21    22 1   
    38    21    23 1   
    39    22    40 1   
    40    22    41 1   
    41    22    42 1   
    42    23    24 2   
    43    23    25 1   
    44    25    26 1   
    45    25    43 1   
    46    25    44 1   
    47    26    27 1   
    48    26    45 1   
    49    27    46 1   
    50    27    47 1   
    51    27    48 1   
@<TRIPOS>SUBSTRUCTURE
     1 7YT         1 TEMP              0 ****  ****    0 ROOT
