@<TRIPOS>MOLECULE
7YU
   78    86     1     0     0
SMALL
No Charge or Current Charge


@<TRIPOS>ATOM
      1 C10        110.4990     6.0480   243.0290 ca         1 7YU       0.097100
      2 C13        107.7420     6.4110   243.0460 ca         1 7YU      -0.114800
      3 C15        101.9300     5.2110   243.0370 cx         1 7YU      -0.111700
      4 C17         96.2310     5.6790   244.4130 c          1 7YU       0.643700
      5 C20        101.3620     5.2250   244.4240 cx         1 7YU      -0.050500
      6 C21        102.3390     5.8220   245.3620 c2         1 7YU       0.125400
      7 C22        102.0170     6.3130   246.5780 ce         1 7YU      -0.324200
      8 C24         99.6050     6.0460   246.0020 cc         1 7YU      -0.212600
      9 C26         91.2410     3.1870   239.8410 cc         1 7YU      -0.165300
     10 C28         95.4770     3.2180   241.6600 c5         1 7YU      -0.044100
     11 C1         101.6580     3.9030   243.7410 cx         1 7YU      -0.084400
     12 C2         112.6140     5.2140   244.0010 c3         1 7YU       0.156900
     13 C3          89.9430     0.3430   237.0240 c3         1 7YU       0.047900
     14 C4          90.4100     2.4160   238.8760 c          1 7YU       0.631900
     15 C5          90.7740     7.7230   243.2980 c3         1 7YU       0.141900
     16 O3         110.6080     7.2180   240.9220 oh         1 7YU      -0.538100
     17 O4         111.8740     5.8940   242.9700 os         1 7YU      -0.372100
     18 O5         104.8230     5.1990   246.4760 o          1 7YU      -0.586100
     19 N1         107.3820     5.3760   244.9980 na         1 7YU      -0.188700
     20 C6         106.0890     5.7690   244.5670 cc         1 7YU      -0.158300
     21 C7         106.3380     6.4320   243.3610 cd         1 7YU      -0.169200
     22 C8         108.4610     6.9260   241.9610 ca         1 7YU      -0.074000
     23 C9         109.8590     6.7360   241.9600 ca         1 7YU       0.092100
     24 C11        109.7290     5.5460   244.1110 ca         1 7YU      -0.185000
     25 C12        108.3440     5.7530   244.0760 ca         1 7YU      -0.022200
     26 C14        103.3850     5.7140   243.1800 c5         1 7YU       0.125000
     27 C16        104.7990     5.5820   245.3120 c          1 7YU       0.647300
     28 O6          95.4620     6.2350   245.1890 o          1 7YU      -0.647100
     29 O7         100.3050     6.7810   248.1590 o          1 7YU      -0.540100
     30 N2         103.5610     5.8330   244.6610 n          1 7YU      -0.329000
     31 N3          98.2130     6.1370   245.9850 na         1 7YU      -0.022000
     32 C18         97.6910     5.6800   244.7600 cc         1 7YU      -0.222600
     33 C19         98.8030     5.3200   244.0170 cd         1 7YU      -0.123000
     34 C23        100.6050     6.3880   247.0400 c          1 7YU       0.609900
     35 C25         99.9590     5.5310   244.7940 cd         1 7YU      -0.084300
     36 N4          90.8970     4.3270   240.6070 na         1 7YU      -0.187700
     37 C27         92.5660     2.9300   240.1950 cd         1 7YU      -0.146200
     38 C29         96.5390     4.0380   242.4870 c5         1 7YU       0.098000
     39 N5          95.7260     5.0390   243.2350 n          1 7YU      -0.186400
     40 C30         94.2410     4.0700   241.8090 ca         1 7YU      -0.033300
     41 C31         94.3860     5.1180   242.7050 ca         1 7YU      -0.155000
     42 C32         93.2950     6.0060   242.9810 ca         1 7YU       0.186100
     43 C33         92.0470     5.8120   242.2870 ca         1 7YU       0.029100
     44 C34         91.9700     4.7350   241.3860 ca         1 7YU      -0.004200
     45 C35         93.0220     3.8980   241.1590 ca         1 7YU      -0.121800
     46 H1         101.3070     5.5010   242.1940 hc         1 7YU       0.108700
     47 H2         102.7610     6.7400   247.2420 ha         1 7YU       0.232000
     48 H3          95.7820     3.0890   240.6160 hc         1 7YU       0.070700
     49 H4          95.3240     2.2200   242.0860 hc         1 7YU       0.070700
     50 H5         100.8180     3.3090   243.3910 hc         1 7YU       0.088200
     51 H6         102.4990     3.3170   244.1040 hc         1 7YU       0.088200
     52 H7         113.6840     5.2040   243.7580 h1         1 7YU       0.046367
     53 H8         112.4900     5.7180   244.9680 h1         1 7YU       0.046367
     54 H9         112.2790     4.1730   244.1000 h1         1 7YU       0.046367
     55 H10         90.3110    -0.5350   236.4780 h1         1 7YU       0.073367
     56 H11         89.0760     0.0500   237.6300 h1         1 7YU       0.073367
     57 H12         89.6350     1.1100   236.3020 h1         1 7YU       0.073367
     58 H13         89.7670     8.1520   243.2210 h1         1 7YU       0.039700
     59 H14         90.9350     7.4340   244.3450 h1         1 7YU       0.039700
     60 H15         91.4930     8.5070   243.0260 h1         1 7YU       0.039700
     61 H16         94.2470     6.7890   244.4350 ho         1 7YU       0.519000
     62 H17        111.5430     6.9810   241.1170 ho         1 7YU       0.479000
     63 H18        107.5770     4.8910   245.8680 hn         1 7YU       0.373000
     64 H19        105.6110     6.9680   242.7620 ha         1 7YU       0.204000
     65 H20        107.9630     7.4520   241.1510 ha         1 7YU       0.136000
     66 H21        110.1770     5.0180   244.9470 ha         1 7YU       0.126000
     67 H22        104.1060     5.0160   242.7330 h1         1 7YU       0.068700
     68 H23        103.5000     6.6930   242.6970 h1         1 7YU       0.068700
     69 H25         97.6470     6.4920   246.7520 hn         1 7YU       0.391000
     70 H26         98.8420     4.9530   243.0020 ha         1 7YU       0.136000
     71 H28         89.9930     4.7900   240.5950 hn         1 7YU       0.378000
     72 H29         93.1770     2.1190   239.8050 ha         1 7YU       0.215000
     73 H30         97.1190     3.3850   243.1530 h1         1 7YU       0.062200
     74 H31         97.2140     4.5460   241.7890 h1         1 7YU       0.062200
     75 O8          90.8960     6.5860   242.4250 os         1 7YU      -0.345100
     76 O2          93.4640     7.0310   243.8630 oh         1 7YU      -0.560100
     77 S1          91.2810     1.0060   238.1160 ss         1 7YU      -0.342600
     78 O1          89.2490     2.7000   238.6130 o          1 7YU      -0.535100
@<TRIPOS>BOND
     1     1    17 1   
     2     1    23 ar  
     3     1    24 ar  
     4     2    21 1   
     5     2    22 ar  
     6     2    25 ar  
     7     3     5 1   
     8     3    11 1   
     9     3    26 1   
    10     3    46 1   
    11     4    28 2   
    12     4    32 1   
    13     4    39 1   
    14     5     6 1   
    15     5    11 1   
    16     5    35 1   
    17     6     7 2   
    18     6    30 1   
    19     7    34 1   
    20     7    47 1   
    21     8    31 1   
    22     8    34 1   
    23     8    35 2   
    24     9    14 1   
    25     9    36 1   
    26     9    37 2   
    27    10    38 1   
    28    10    40 1   
    29    10    48 1   
    30    10    49 1   
    31    11    50 1   
    32    11    51 1   
    33    12    17 1   
    34    12    52 1   
    35    12    53 1   
    36    12    54 1   
    37    13    55 1   
    38    13    56 1   
    39    13    57 1   
    40    13    77 1   
    41    14    77 1   
    42    14    78 2   
    43    15    58 1   
    44    15    59 1   
    45    15    60 1   
    46    15    75 1   
    47    16    23 1   
    48    16    62 1   
    49    18    27 2   
    50    19    20 1   
    51    19    25 1   
    52    19    63 1   
    53    20    21 2   
    54    20    27 1   
    55    21    64 1   
    56    22    23 ar  
    57    22    65 1   
    58    24    25 ar  
    59    24    66 1   
    60    26    30 1   
    61    26    67 1   
    62    26    68 1   
    63    27    30 1   
    64    29    34 2   
    65    31    32 1   
    66    31    69 1   
    67    32    33 2   
    68    33    35 1   
    69    33    70 1   
    70    36    44 1   
    71    36    71 1   
    72    37    45 1   
    73    37    72 1   
    74    38    39 1   
    75    38    73 1   
    76    38    74 1   
    77    39    41 1   
    78    40    41 ar  
    79    40    45 ar  
    80    41    42 ar  
    81    42    43 ar  
    82    42    76 1   
    83    43    44 ar  
    84    43    75 1   
    85    44    45 ar  
    86    61    76 1   
@<TRIPOS>SUBSTRUCTURE
     1 7YU         1 TEMP              0 ****  ****    0 ROOT
