@<TRIPOS>MOLECULE
7YU
   78    86     1     0     0
SMALL
abcg2


@<TRIPOS>ATOM
      1 C10        110.6770     6.6370   243.8430 ca         1 7YU       0.097100
      2 C13        107.9770     6.5690   243.1560 ca         1 7YU      -0.114800
      3 C15        102.3210     4.9550   242.4740 cx         1 7YU      -0.111700
      4 C17         96.4590     5.2630   244.0460 c          1 7YU       0.643700
      5 C20        101.5740     4.8320   243.7910 cx         1 7YU      -0.050500
      6 C21        102.5130     5.2480   244.8500 c2         1 7YU       0.125400
      7 C22        102.1220     5.5170   246.1220 ce         1 7YU      -0.324200
      8 C24         99.7880     5.3240   245.3910 cc         1 7YU      -0.212600
      9 C26         90.7820     3.2760   240.4020 cc         1 7YU      -0.165300
     10 C28         95.2790     2.9450   241.5230 c5         1 7YU      -0.044100
     11 C1         102.0430     3.5980   242.9950 cx         1 7YU      -0.084400
     12 C2         112.5860     6.2810   245.2440 c3         1 7YU       0.156900
     13 C3          88.2710     1.0070   238.0600 c3         1 7YU       0.047900
     14 C4          89.6240     2.7560   239.6910 c          1 7YU       0.631900
     15 C5          91.2870     7.9130   242.1680 c3         1 7YU       0.141900
     16 O3         111.1530     7.6440   241.7090 oh         1 7YU      -0.538100
     17 O4         112.0210     6.7430   244.0170 os         1 7YU      -0.372100
     18 O5         104.9660     5.1610   246.2080 o          1 7YU      -0.586100
     19 N1         107.3570     5.6370   245.1000 na         1 7YU      -0.188700
     20 C6         106.2080     5.8090   244.3460 cc         1 7YU      -0.158300
     21 C7         106.5690     6.3840   243.1350 cd         1 7YU      -0.169200
     22 C8         108.9030     7.1010   242.2340 ca         1 7YU      -0.074000
     23 C9         110.2300     7.1330   242.5790 ca         1 7YU       0.092100
     24 C11        109.7940     6.1100   244.7650 ca         1 7YU      -0.185000
     25 C12        108.4410     6.0860   244.4060 ca         1 7YU      -0.022200
     26 C14        103.6860     5.5080   242.8060 c5         1 7YU       0.125000
     27 C16        104.9560     5.4340   245.0070 c          1 7YU       0.647300
     28 O6          95.8280     5.8460   244.9610 o          1 7YU      -0.647100
     29 O7         100.3230     5.7650   247.6460 o          1 7YU      -0.540100
     30 N2         103.7800     5.3920   244.2800 n          1 7YU      -0.329000
     31 N3          98.4320     5.3970   245.4380 na         1 7YU      -0.022000
     32 C18         97.9130     5.1410   244.1960 cc         1 7YU      -0.222600
     33 C19         98.9810     4.8990   243.3260 cd         1 7YU      -0.123000
     34 C23        100.7130     5.5310   246.4920 c          1 7YU       0.609900
     35 C25        100.1590     5.0240   244.0830 cd         1 7YU      -0.084300
     36 N4          90.6550     4.4290   241.1610 na         1 7YU      -0.187700
     37 C27         92.0840     2.8210   240.4880 cd         1 7YU      -0.146200
     38 C29         96.4570     3.7990   242.0070 c5         1 7YU       0.098000
     39 N5          95.8470     4.7700   242.9530 n          1 7YU      -0.186400
     40 C30         94.0970     3.8220   241.8050 ca         1 7YU      -0.033300
     41 C31         94.4480     4.8590   242.6530 ca         1 7YU      -0.155000
     42 C32         93.5210     5.8680   243.0410 ca         1 7YU       0.186100
     43 C33         92.2070     5.7790   242.5780 ca         1 7YU       0.029100
     44 C34         91.8540     4.7190   241.7400 ca         1 7YU      -0.004200
     45 C35         92.7860     3.7220   241.3380 ca         1 7YU      -0.121800
     46 H1         101.8140     5.3210   241.5930 hc         1 7YU       0.108700
     47 H2         102.8300     5.8010   246.8820 ha         1 7YU       0.232000
     48 H3          95.3750     2.6930   240.4670 hc         1 7YU       0.070700
     49 H4          95.2110     2.0070   242.0830 hc         1 7YU       0.070700
     50 H5         101.2370     3.0380   242.5420 hc         1 7YU       0.088200
     51 H6         102.8540     3.0140   243.4100 hc         1 7YU       0.088200
     52 H7         113.6530     6.4690   245.1710 h1         1 7YU       0.046367
     53 H8         112.1690     6.8310   246.0910 h1         1 7YU       0.046367
     54 H9         112.4030     5.2120   245.3740 h1         1 7YU       0.046367
     55 H10         88.3490     0.1140   237.4420 h1         1 7YU       0.073367
     56 H11         87.5530     0.8440   238.8600 h1         1 7YU       0.073367
     57 H12         87.9720     1.8570   237.4510 h1         1 7YU       0.073367
     58 H13         90.4770     8.5370   242.5400 h1         1 7YU       0.039700
     59 H14         92.2400     8.4290   242.2940 h1         1 7YU       0.039700
     60 H15         91.1250     7.6890   241.1100 h1         1 7YU       0.039700
     61 H16         94.6350     6.6600   244.3580 ho         1 7YU       0.519000
     62 H17        112.0280     7.5800   242.1210 ho         1 7YU       0.479000
     63 H18        107.3470     5.2780   246.0420 hn         1 7YU       0.373000
     64 H19        105.9190     6.6620   242.3270 ha         1 7YU       0.204000
     65 H20        108.5880     7.4810   241.2710 ha         1 7YU       0.136000
     66 H21        110.1260     5.7340   245.7210 ha         1 7YU       0.126000
     67 H22        104.4860     4.9400   242.3360 h1         1 7YU       0.068700
     68 H23        103.7620     6.5550   242.5100 h1         1 7YU       0.068700
     69 H25         97.8770     5.6330   246.2460 hn         1 7YU       0.391000
     70 H26         98.9170     4.6940   242.2730 ha         1 7YU       0.136000
     71 H28         89.7980     4.9440   241.2760 hn         1 7YU       0.378000
     72 H29         92.4840     1.9460   240.0020 ha         1 7YU       0.215000
     73 H30         97.2190     3.2170   242.5140 h1         1 7YU       0.062200
     74 H31         96.9090     4.3460   241.1790 h1         1 7YU       0.062200
     75 O8          91.2590     6.7030   242.9440 os         1 7YU      -0.345100
     76 O2          93.8520     6.9330   243.7980 oh         1 7YU      -0.560100
     77 S1          89.9240     1.2770   238.7440 ss         1 7YU      -0.342600
     78 O1          88.5270     3.2920   239.7410 o          1 7YU      -0.535100
@<TRIPOS>BOND
     1     1    17 1   
     2     1    23 ar  
     3     1    24 ar  
     4     2    21 1   
     5     2    22 ar  
     6     2    25 ar  
     7     3     5 1   
     8     3    11 1   
     9     3    26 1   
    10     3    46 1   
    11     4    28 2   
    12     4    32 1   
    13     4    39 1   
    14     5     6 1   
    15     5    11 1   
    16     5    35 1   
    17     6     7 2   
    18     6    30 1   
    19     7    34 1   
    20     7    47 1   
    21     8    31 1   
    22     8    34 1   
    23     8    35 2   
    24     9    14 1   
    25     9    36 1   
    26     9    37 2   
    27    10    38 1   
    28    10    40 1   
    29    10    48 1   
    30    10    49 1   
    31    11    50 1   
    32    11    51 1   
    33    12    17 1   
    34    12    52 1   
    35    12    53 1   
    36    12    54 1   
    37    13    55 1   
    38    13    56 1   
    39    13    57 1   
    40    13    77 1   
    41    14    77 1   
    42    14    78 2   
    43    15    58 1   
    44    15    59 1   
    45    15    60 1   
    46    15    75 1   
    47    16    23 1   
    48    16    62 1   
    49    18    27 2   
    50    19    20 1   
    51    19    25 1   
    52    19    63 1   
    53    20    21 2   
    54    20    27 1   
    55    21    64 1   
    56    22    23 ar  
    57    22    65 1   
    58    24    25 ar  
    59    24    66 1   
    60    26    30 1   
    61    26    67 1   
    62    26    68 1   
    63    27    30 1   
    64    29    34 2   
    65    31    32 1   
    66    31    69 1   
    67    32    33 2   
    68    33    35 1   
    69    33    70 1   
    70    36    44 1   
    71    36    71 1   
    72    37    45 1   
    73    37    72 1   
    74    38    39 1   
    75    38    73 1   
    76    38    74 1   
    77    39    41 1   
    78    40    41 ar  
    79    40    45 ar  
    80    41    42 ar  
    81    42    43 ar  
    82    42    76 1   
    83    43    44 ar  
    84    43    75 1   
    85    44    45 ar  
    86    61    76 1   
@<TRIPOS>SUBSTRUCTURE
     1 7YU         1 TEMP              0 ****  ****    0 ROOT
