@<TRIPOS>MOLECULE
7YV
   42    44     1     0     0
SMALL
No Charge or Current Charge


@<TRIPOS>ATOM
      1 C10        128.2740   109.9740   110.4440 c          1 7YV       0.606100
      2 C13        126.1240   108.4040   108.5960 ca         1 7YV      -0.062800
      3 C15        124.8760   108.0030   108.0830 ca         1 7YV      -0.109500
      4 O01        127.7700   109.2980   111.3360 o          1 7YV      -0.586100
      5 N02        127.6550   110.2480   109.2350 ns         1 7YV      -0.175000
      6 C03        130.8100   109.6340   110.7200 c5         1 7YV      -0.067700
      7 C04        131.0670   111.1030   112.4330 c5         1 7YV      -0.073700
      8 C05        130.9120   109.5780   112.2620 c5         1 7YV      -0.083400
      9 C06        129.6640   110.6790   110.4700 c5         1 7YV      -0.150700
     10 C07        129.7900   111.6380   111.7060 c5         1 7YV      -0.064400
     11 C08        132.1460   110.3600   110.3610 c5         1 7YV      -0.080400
     12 C09        132.2930   111.4120   111.5090 c5         1 7YV      -0.080400
     13 C11        126.4140   109.7880   108.7190 ca         1 7YV      -0.052000
     14 C12        125.4670   110.7450   108.2860 ca         1 7YV      -0.062800
     15 C14        124.2270   110.3190   107.7730 ca         1 7YV      -0.109500
     16 C16        123.9230   108.9510   107.6770 ca         1 7YV      -0.068300
     17 C19        122.5810   108.5010   107.1190 c3         1 7YV      -0.045800
     18 H151       124.6480   106.9430   107.9890 ha         1 7YV       0.111500
     19 H172       125.9660   112.5350   109.4180 hc         1 7YV       0.043700
     20 H173       126.6330   112.5100   107.7750 hc         1 7YV       0.043700
     21 H171       124.9180   112.8460   108.0300 hc         1 7YV       0.043700
     22 H021       128.1600   110.8780   108.6250 hn         1 7YV       0.151000
     23 H031       130.6740   108.6680   110.2180 hc         1 7YV       0.067700
     24 H041       131.1790   111.4520   113.4660 hc         1 7YV       0.069700
     25 H051       130.0190   109.1740   112.7540 hc         1 7YV       0.058700
     26 H052       131.7790   109.0100   112.6210 hc         1 7YV       0.058700
     27 H061       129.8200   111.2220   109.5300 hc         1 7YV       0.054700
     28 H071       129.8860   112.6890   111.4090 hc         1 7YV       0.057200
     29 H072       128.9150   111.5790   112.3640 hc         1 7YV       0.057200
     30 H082       132.9880   109.6580   110.3660 hc         1 7YV       0.042700
     31 H081       132.1280   110.8220   109.3670 hc         1 7YV       0.042700
     32 H091       133.2380   111.2720   112.0460 hc         1 7YV       0.043200
     33 H092       132.2890   112.4430   111.1360 hc         1 7YV       0.043200
     34 H141       123.4950   111.0540   107.4460 ha         1 7YV       0.111500
     35 H181       128.1670   107.6330   108.7560 hc         1 7YV       0.043700
     36 H182       127.0630   107.0480   110.0190 hc         1 7YV       0.043700
     37 H183       126.9650   106.4050   108.3780 hc         1 7YV       0.043700
     38 H191       122.6360   108.3690   106.0320 hc         1 7YV       0.042033
     39 H192       122.2660   107.5460   107.5570 hc         1 7YV       0.042033
     40 H193       121.7940   109.2350   107.3290 hc         1 7YV       0.042033
     41 C18        127.1370   107.3180   108.9590 c3         1 7YV      -0.045300
     42 C17        125.7610   112.2400   108.3820 c3         1 7YV      -0.045300
@<TRIPOS>BOND
     1     1     4 2   
     2     1     5 1   
     3     1     9 1   
     4     2     3 ar  
     5     2    13 ar  
     6     2    41 1   
     7     3    16 ar  
     8     3    18 1   
     9     5    13 1   
    10     5    22 1   
    11     6     8 1   
    12     6     9 1   
    13     6    11 1   
    14     6    23 1   
    15     7     8 1   
    16     7    10 1   
    17     7    12 1   
    18     7    24 1   
    19     8    25 1   
    20     8    26 1   
    21     9    10 1   
    22     9    27 1   
    23    10    28 1   
    24    10    29 1   
    25    11    12 1   
    26    11    30 1   
    27    11    31 1   
    28    12    32 1   
    29    12    33 1   
    30    13    14 ar  
    31    14    15 ar  
    32    14    42 1   
    33    15    16 ar  
    34    15    34 1   
    35    16    17 1   
    36    17    38 1   
    37    17    39 1   
    38    17    40 1   
    39    19    42 1   
    40    20    42 1   
    41    21    42 1   
    42    35    41 1   
    43    36    41 1   
    44    37    41 1   
@<TRIPOS>SUBSTRUCTURE
     1 7YV         1 TEMP              0 ****  ****    0 ROOT
