@<TRIPOS>MOLECULE
7YV
   42    44     1     0     0
SMALL
abcg2


@<TRIPOS>ATOM
      1 C10        128.1520   110.4190   110.3420 c          1 7YV       0.606100
      2 C13        126.2650   108.4620   108.6600 ca         1 7YV      -0.062800
      3 C15        125.0190   108.0020   108.2400 ca         1 7YV      -0.109500
      4 O01        127.4430   110.0340   111.2570 o          1 7YV      -0.586100
      5 N02        127.7620   110.3440   109.0470 ns         1 7YV      -0.175000
      6 C03        130.5970   109.8210   110.4740 c5         1 7YV      -0.067700
      7 C04        130.9960   110.7870   112.4620 c5         1 7YV      -0.073700
      8 C05        130.6750   109.3840   111.9400 c5         1 7YV      -0.083400
      9 C06        129.5520   110.9660   110.5290 c5         1 7YV      -0.150700
     10 C07        129.8070   111.5910   111.9210 c5         1 7YV      -0.064400
     11 C08        131.9760   110.4640   110.2760 c5         1 7YV      -0.080400
     12 C09        132.2430   111.1510   111.6420 c5         1 7YV      -0.080400
     13 C11        126.5060   109.8360   108.6360 ca         1 7YV      -0.052000
     14 C12        125.5300   110.7340   108.1940 ca         1 7YV      -0.062800
     15 C14        124.3040   110.2340   107.7750 ca         1 7YV      -0.109500
     16 C16        124.0290   108.8690   107.7930 ca         1 7YV      -0.068300
     17 C19        122.7030   108.3520   107.3160 c3         1 7YV      -0.045800
     18 H151       124.8220   106.9360   108.2570 ha         1 7YV       0.111500
     19 H172       126.0810   112.5750   109.1720 hc         1 7YV       0.043700
     20 H173       126.6220   112.4670   107.5080 hc         1 7YV       0.043700
     21 H171       124.9230   112.7650   107.8580 hc         1 7YV       0.043700
     22 H021       128.3540   110.7650   108.3470 hn         1 7YV       0.151000
     23 H031       130.3650   109.0460   109.7420 hc         1 7YV       0.067700
     24 H041       131.1320   110.8820   113.5400 hc         1 7YV       0.069700
     25 H051       129.7410   108.9770   112.3310 hc         1 7YV       0.058700
     26 H052       131.4730   108.6600   112.1210 hc         1 7YV       0.058700
     27 H061       129.7520   111.6830   109.7280 hc         1 7YV       0.054700
     28 H071       130.0220   112.6580   111.8540 hc         1 7YV       0.057200
     29 H072       128.9360   111.4710   112.5670 hc         1 7YV       0.057200
     30 H082       132.7230   109.6950   110.0720 hc         1 7YV       0.042700
     31 H081       131.9930   111.1590   109.4350 hc         1 7YV       0.042700
     32 H091       133.1470   110.7580   112.1110 hc         1 7YV       0.043200
     33 H092       132.3710   112.2310   111.5530 hc         1 7YV       0.043200
     34 H141       123.5420   110.9260   107.4340 ha         1 7YV       0.111500
     35 H181       128.2850   107.7100   108.6650 hc         1 7YV       0.043700
     36 H182       127.4530   107.5370   110.1980 hc         1 7YV       0.043700
     37 H183       127.0430   106.4730   108.8580 hc         1 7YV       0.043700
     38 H191       122.6530   108.3490   106.2250 hc         1 7YV       0.042033
     39 H192       122.5260   107.3320   107.6540 hc         1 7YV       0.042033
     40 H193       121.8800   108.9730   107.6710 hc         1 7YV       0.042033
     41 C18        127.3160   107.4950   109.1170 c3         1 7YV      -0.045300
     42 C17        125.8020   112.2100   108.1820 c3         1 7YV      -0.045300
@<TRIPOS>BOND
     1     1     4 2   
     2     1     5 1   
     3     1     9 1   
     4     2     3 ar  
     5     2    13 ar  
     6     2    41 1   
     7     3    16 ar  
     8     3    18 1   
     9     5    13 1   
    10     5    22 1   
    11     6     8 1   
    12     6     9 1   
    13     6    11 1   
    14     6    23 1   
    15     7     8 1   
    16     7    10 1   
    17     7    12 1   
    18     7    24 1   
    19     8    25 1   
    20     8    26 1   
    21     9    10 1   
    22     9    27 1   
    23    10    28 1   
    24    10    29 1   
    25    11    12 1   
    26    11    30 1   
    27    11    31 1   
    28    12    32 1   
    29    12    33 1   
    30    13    14 ar  
    31    14    15 ar  
    32    14    42 1   
    33    15    16 ar  
    34    15    34 1   
    35    16    17 1   
    36    17    38 1   
    37    17    39 1   
    38    17    40 1   
    39    19    42 1   
    40    20    42 1   
    41    21    42 1   
    42    35    41 1   
    43    36    41 1   
    44    37    41 1   
@<TRIPOS>SUBSTRUCTURE
     1 7YV         1 TEMP              0 ****  ****    0 ROOT
