@<TRIPOS>MOLECULE
7YW
   86    87     1     0     0
SMALL
bcc


@<TRIPOS>ATOM
      1 C1          -7.4780   -23.4810   -20.4270 ca         1 7YW      -0.113000
      2 C10        -10.1530   -20.8290   -20.6120 c3         1 7YW      -0.107767
      3 C11         -8.8700   -16.7890   -18.8880 c3         1 7YW       0.042700
      4 C12         -9.0910   -15.5580   -18.0170 c          1 7YW       0.656100
      5 C13        -12.1780   -19.6400   -19.7600 c3         1 7YW      -0.107767
      6 C14         -9.0990   -13.1230   -17.9020 c3         1 7YW       0.037700
      7 C15        -10.6050   -12.8420   -17.9290 c          1 7YW       0.651100
      8 C16        -10.3300   -20.2600   -18.1920 c3         1 7YW      -0.107767
      9 C17        -12.5710   -12.3710   -16.4980 c3         1 7YW       0.104700
     10 C19        -13.2110   -13.5330   -15.7390 c3         1 7YW      -0.071400
     11 C2          -7.7690   -23.2060   -19.0990 ca         1 7YW       0.018400
     12 C20        -13.1670   -14.8490   -16.4970 c5         1 7YW      -0.155700
     13 C21        -13.9800   -14.8960   -17.7910 c5         1 7YW      -0.095400
     14 C22        -14.3890   -16.3640   -17.9170 c5         1 7YW       0.099000
     15 C23         -6.2420   -10.9060   -19.3430 c3         1 7YW      -0.090600
     16 C24        -13.7270   -16.0120   -15.6910 c          1 7YW       0.706500
     17 C27        -12.7020   -11.0460   -15.7530 c3         1 7YW       0.128400
     18 C3          -7.1500   -22.1690   -18.4230 ca         1 7YW      -0.102000
     19 C30        -10.2360   -17.4200   -19.2410 c3         1 7YW       0.138100
     20 C34         -8.3580   -11.9720   -18.5770 c3         1 7YW      -0.084400
     21 C35         -6.8340   -12.1000   -18.6010 c3         1 7YW      -0.059700
     22 C37         -6.2360   -12.2120   -17.2020 c3         1 7YW      -0.090600
     23 C4          -6.2320   -21.3650   -19.0930 ca         1 7YW      -0.118300
     24 C5          -5.9420   -21.6240   -20.4260 ca         1 7YW      -0.091000
     25 C6          -6.5540   -22.6830   -21.0840 ca         1 7YW      -0.125000
     26 C7          -5.5750   -20.2270   -18.3610 c3         1 7YW       0.206700
     27 C9          -7.0680   -18.4370   -18.7520 c          1 7YW       0.763100
     28 N10         -8.0270   -17.7000   -18.1600 ns         1 7YW      -0.551900
     29 N13         -8.8330   -14.3720   -18.5830 ns         1 7YW      -0.548900
     30 N16        -11.1630   -12.6250   -16.7300 ns         1 7YW      -0.562900
     31 N23        -14.4170   -16.7960   -16.5370 ns         1 7YW      -0.583900
     32 O26        -13.5670   -16.2070   -14.4980 o          1 7YW      -0.630500
     33 O29         -6.6960   -18.3350   -19.9010 o          1 7YW      -0.579000
     34 O32         -9.9700   -18.6000   -19.9550 os         1 7YW      -0.413600
     35 O33         -9.4920   -15.6780   -16.8680 o          1 7YW      -0.614100
     36 O38        -11.2110   -12.8070   -18.9900 o          1 7YW      -0.610100
     37 O8          -6.5360   -19.2960   -17.8670 os         1 7YW      -0.436900
     38 CL1         -8.9550   -24.1660   -18.2730 cl         1 7YW      -0.116400
     39 H1          -7.9670   -24.2970   -20.9420 ha         1 7YW       0.147000
     40 H2         -10.5950   -21.8060   -20.4160 hc         1 7YW       0.043144
     41 H3         -10.4060   -20.5430   -21.6340 hc         1 7YW       0.043144
     42 H4          -9.0690   -20.9340   -20.5420 hc         1 7YW       0.043144
     43 H5          -8.3590   -16.5200   -19.8140 h1         1 7YW       0.096700
     44 H6         -12.5880   -18.9250   -19.0440 hc         1 7YW       0.043144
     45 H7         -12.4440   -19.3090   -20.7650 hc         1 7YW       0.043144
     46 H8         -12.6730   -20.5950   -19.5780 hc         1 7YW       0.043144
     47 H9          -8.7540   -13.2190   -16.8700 h1         1 7YW       0.078700
     48 H10        -10.6910   -19.5660   -17.4320 hc         1 7YW       0.043144
     49 H11        -10.7970   -21.2260   -17.9940 hc         1 7YW       0.043144
     50 H12         -9.2550   -20.3810   -18.0620 hc         1 7YW       0.043144
     51 H13        -13.0440   -12.2630   -17.4760 h1         1 7YW       0.091700
     52 H14        -11.3210   -15.5510   -19.5240 hc         1 7YW       0.048367
     53 H15        -10.5550   -16.1750   -20.9860 hc         1 7YW       0.048367
     54 H16        -12.0220   -16.9260   -20.3540 hc         1 7YW       0.048367
     55 H17        -12.7030   -13.6460   -14.7760 hc         1 7YW       0.066700
     56 H18        -14.2500   -13.2800   -15.5170 hc         1 7YW       0.066700
     57 H19        -12.1230   -15.1130   -16.7120 hc         1 7YW       0.087700
     58 H20        -13.4270   -14.5450   -18.6600 hc         1 7YW       0.064700
     59 H21        -14.8730   -14.2710   -17.6920 hc         1 7YW       0.064700
     60 H22        -15.3630   -16.4910   -18.3900 h1         1 7YW       0.041200
     61 H23        -13.6590   -16.9380   -18.4960 h1         1 7YW       0.041200
     62 H24         -5.1570   -10.9860   -19.4160 hc         1 7YW       0.035867
     63 H25         -6.6390   -10.8280   -20.3570 hc         1 7YW       0.035867
     64 H26         -6.4720    -9.9720   -18.8240 hc         1 7YW       0.035867
     65 H27        -12.1800   -11.1270   -14.7880 h1         1 7YW       0.023200
     66 H28        -12.1880   -10.2700   -16.3340 h1         1 7YW       0.023200
     67 H29         -7.3870   -21.9830   -17.3830 ha         1 7YW       0.151000
     68 H30        -10.7550   -17.6300   -18.2980 h1         1 7YW       0.052700
     69 H31         -8.6300   -11.0490   -18.0540 hc         1 7YW       0.059200
     70 H32         -8.7290   -11.8660   -19.6020 hc         1 7YW       0.059200
     71 H33         -6.5660   -13.0040   -19.1580 hc         1 7YW       0.049700
     72 H34         -6.5630   -13.1150   -16.6830 hc         1 7YW       0.035867
     73 H35         -5.1470   -12.2450   -17.2500 hc         1 7YW       0.035867
     74 H36         -6.5150   -11.3530   -16.5870 hc         1 7YW       0.035867
     75 H37         -5.2340   -20.9970   -20.9530 ha         1 7YW       0.145000
     76 H38         -6.3220   -22.8830   -22.1210 ha         1 7YW       0.139000
     77 H39         -5.0620   -20.5920   -17.4710 h1         1 7YW       0.069200
     78 H40         -4.8370   -19.7340   -18.9950 h1         1 7YW       0.069200
     79 H41         -8.3010   -17.9310   -17.2170 hn         1 7YW       0.339500
     80 H42         -8.5600   -14.3410   -19.5540 hn         1 7YW       0.332500
     81 H43        -10.5850   -12.7410   -15.9110 hn         1 7YW       0.318500
     82 H44        -14.7820   -17.6930   -16.2560 hn         1 7YW       0.324500
     83 H45        -14.1420    -9.9530   -15.0570 ho         1 7YW       0.410000
     84 C18        -11.0780   -16.4620   -20.0720 c3         1 7YW      -0.121100
     85 C8         -10.6660   -19.8020   -19.6100 c3         1 7YW       0.169800
     86 O28        -14.0670   -10.7550   -15.5830 oh         1 7YW      -0.593800
@<TRIPOS>BOND
     1     1    11 ar  
     2     1    25 ar  
     3     1    39 1   
     4     2    40 1   
     5     2    41 1   
     6     2    42 1   
     7     2    85 1   
     8     3     4 1   
     9     3    19 1   
    10     3    28 1   
    11     3    43 1   
    12     4    29 1   
    13     4    35 2   
    14     5    44 1   
    15     5    45 1   
    16     5    46 1   
    17     5    85 1   
    18     6     7 1   
    19     6    20 1   
    20     6    29 1   
    21     6    47 1   
    22     7    30 1   
    23     7    36 2   
    24     8    48 1   
    25     8    49 1   
    26     8    50 1   
    27     8    85 1   
    28     9    10 1   
    29     9    17 1   
    30     9    30 1   
    31     9    51 1   
    32    10    12 1   
    33    10    55 1   
    34    10    56 1   
    35    11    18 ar  
    36    11    38 1   
    37    12    13 1   
    38    12    16 1   
    39    12    57 1   
    40    13    14 1   
    41    13    58 1   
    42    13    59 1   
    43    14    31 1   
    44    14    60 1   
    45    14    61 1   
    46    15    21 1   
    47    15    62 1   
    48    15    63 1   
    49    15    64 1   
    50    16    31 1   
    51    16    32 2   
    52    17    65 1   
    53    17    66 1   
    54    17    86 1   
    55    18    23 ar  
    56    18    67 1   
    57    19    34 1   
    58    19    68 1   
    59    19    84 1   
    60    20    21 1   
    61    20    69 1   
    62    20    70 1   
    63    21    22 1   
    64    21    71 1   
    65    22    72 1   
    66    22    73 1   
    67    22    74 1   
    68    23    24 ar  
    69    23    26 1   
    70    24    25 ar  
    71    24    75 1   
    72    25    76 1   
    73    26    37 1   
    74    26    77 1   
    75    26    78 1   
    76    27    28 1   
    77    27    33 2   
    78    27    37 1   
    79    28    79 1   
    80    29    80 1   
    81    30    81 1   
    82    31    82 1   
    83    34    85 1   
    84    52    84 1   
    85    53    84 1   
    86    54    84 1   
    87    83    86 1   
@<TRIPOS>SUBSTRUCTURE
     1 7YW         1 TEMP              0 ****  ****    0 ROOT
