@<TRIPOS>MOLECULE
7YW
   86    87     1     0     0
SMALL
No Charge or Current Charge


@<TRIPOS>ATOM
      1 C1          -7.3250   -23.5060   -21.2200 ca         1 7YW      -0.095000
      2 C10        -10.1160   -21.1560   -20.6050 c3         1 7YW      -0.107767
      3 C11         -8.7320   -17.0320   -18.9500 c3         1 7YW       0.042700
      4 C12         -8.7380   -15.8260   -17.9780 c          1 7YW       0.589100
      5 C13        -11.8620   -20.3060   -18.9680 c3         1 7YW      -0.107767
      6 C14         -9.4570   -13.4000   -17.7430 c3         1 7YW       0.037700
      7 C15        -10.8690   -12.8570   -18.0930 c          1 7YW       0.584100
      8 C16         -9.4580   -20.7410   -18.1920 c3         1 7YW      -0.107767
      9 C17        -12.8720   -11.6550   -17.1280 c3         1 7YW       0.104700
     10 C19        -13.7220   -12.3820   -16.0510 c3         1 7YW      -0.071400
     11 C2          -7.1140   -23.3340   -19.8420 ca         1 7YW       0.110000
     12 C20        -13.7060   -13.9380   -16.1260 c5         1 7YW      -0.155700
     13 C21        -14.2730   -14.5480   -17.4390 c5         1 7YW      -0.095400
     14 C22        -14.5800   -16.0020   -16.9910 c5         1 7YW       0.099000
     15 C23         -5.8950   -11.6970   -18.1550 c3         1 7YW      -0.090600
     16 C24        -14.5590   -14.6210   -15.0490 c          1 7YW       0.564000
     17 C27        -12.9110   -10.1080   -17.0070 c3         1 7YW       0.151600
     18 C3          -6.3570   -22.2480   -19.3730 ca         1 7YW      -0.084000
     19 C30        -10.0680   -17.8290   -18.8490 c3         1 7YW       0.161300
     20 C34         -8.3630   -12.3430   -18.0530 c3         1 7YW      -0.084400
     21 C35         -6.9240   -12.6990   -17.5850 c3         1 7YW      -0.059700
     22 C37         -6.8030   -12.7830   -16.0440 c3         1 7YW      -0.090600
     23 C4          -5.8130   -21.3150   -20.2800 ca         1 7YW      -0.118300
     24 C5          -6.0280   -21.4910   -21.6620 ca         1 7YW      -0.073000
     25 C6          -6.7790   -22.5840   -22.1310 ca         1 7YW      -0.107000
     26 C7          -5.0090   -20.1240   -19.7630 c3         1 7YW       0.229900
     27 C9          -6.8120   -18.5410   -19.6020 c          1 7YW       0.647100
     28 N10         -7.5570   -17.8900   -18.6600 ns         1 7YW      -0.484900
     29 N13         -9.2260   -14.6470   -18.5050 ns         1 7YW      -0.481900
     30 N16        -11.4830   -12.1390   -17.0880 ns         1 7YW      -0.495900
     31 N23        -15.0370   -15.7690   -15.6230 ns         1 7YW      -0.516900
     32 O26        -14.9670   -14.1870   -13.9850 o          1 7YW      -0.555000
     33 O29         -6.9310   -18.4080   -20.8090 o          1 7YW      -0.530000
     34 O32         -9.9810   -18.9370   -19.7790 os         1 7YW      -0.460000
     35 O33         -8.3480   -15.9070   -16.8200 o          1 7YW      -0.614100
     36 O38        -11.4150   -13.0720   -19.1680 o          1 7YW      -0.610100
     37 O8          -5.8640   -19.2840   -18.9650 os         1 7YW      -0.460100
     38 Cl1         -7.8090   -24.4760   -18.7000 cl         1 7YW      -0.208000
     39 H1          -7.9120   -24.3470   -21.5800 ha         1 7YW       0.129000
     40 H2         -10.3370   -22.2090   -20.3910 hc         1 7YW       0.043144
     41 H3         -10.7480   -20.8380   -21.4420 hc         1 7YW       0.043144
     42 H4          -9.0690   -21.0850   -20.9230 hc         1 7YW       0.043144
     43 H5          -8.6410   -16.6420   -19.9710 h1         1 7YW       0.096700
     44 H6         -12.0530   -19.7190   -18.0620 hc         1 7YW       0.043144
     45 H7         -12.4880   -19.9160   -19.7800 hc         1 7YW       0.043144
     46 H8         -12.1820   -21.3350   -18.7660 hc         1 7YW       0.043144
     47 H9          -9.4630   -13.6250   -16.6690 h1         1 7YW       0.078700
     48 H10         -9.6790   -20.2070   -17.2620 hc         1 7YW       0.043144
     49 H11         -9.6090   -21.8090   -17.9950 hc         1 7YW       0.043144
     50 H12         -8.4010   -20.5950   -18.4330 hc         1 7YW       0.043144
     51 H13        -13.3010   -11.9040   -18.1080 h1         1 7YW       0.091700
     52 H14        -11.4870   -16.1920   -18.5060 hc         1 7YW       0.048367
     53 H15        -11.1980   -16.5470   -20.2240 hc         1 7YW       0.048367
     54 H16        -12.2240   -17.6080   -19.2450 hc         1 7YW       0.048367
     55 H17        -13.3680   -12.0650   -15.0610 hc         1 7YW       0.066700
     56 H18        -14.7590   -12.0310   -16.1250 hc         1 7YW       0.066700
     57 H19        -12.6830   -14.3080   -15.9930 hc         1 7YW       0.087700
     58 H20        -13.5720   -14.5080   -18.2790 hc         1 7YW       0.064700
     59 H21        -15.1920   -14.0370   -17.7510 hc         1 7YW       0.064700
     60 H22        -15.3450   -16.4750   -17.6220 h1         1 7YW       0.041200
     61 H23        -13.6780   -16.6290   -17.0080 h1         1 7YW       0.041200
     62 H24         -4.8760   -11.9770   -17.8600 hc         1 7YW       0.035867
     63 H25         -5.9340   -11.6800   -19.2510 hc         1 7YW       0.035867
     64 H26         -6.0920   -10.6820   -17.7880 hc         1 7YW       0.035867
     65 H27        -12.5270    -9.8140   -16.0210 h1         1 7YW       0.023200
     66 H28        -12.2420    -9.6780   -17.7650 h1         1 7YW       0.023200
     67 H29         -6.2020   -22.1240   -18.3040 ha         1 7YW       0.133000
     68 H30        -10.1870   -18.1740   -17.8140 h1         1 7YW       0.052700
     69 H31         -8.6510   -11.3880   -17.5930 hc         1 7YW       0.059200
     70 H32         -8.3550   -12.1670   -19.1360 hc         1 7YW       0.059200
     71 H33         -6.6660   -13.6850   -17.9920 hc         1 7YW       0.049700
     72 H34         -7.4550   -13.5610   -15.6320 hc         1 7YW       0.035867
     73 H35         -5.7740   -13.0260   -15.7510 hc         1 7YW       0.035867
     74 H36         -7.0730   -11.8270   -15.5780 hc         1 7YW       0.035867
     75 H37         -5.6190   -20.7780   -22.3750 ha         1 7YW       0.127000
     76 H38         -6.9440   -22.7130   -23.1990 ha         1 7YW       0.121000
     77 H39         -4.1800   -20.5030   -19.1510 h1         1 7YW       0.069200
     78 H40         -4.5670   -19.5630   -20.5970 h1         1 7YW       0.069200
     79 H41         -7.3000   -18.0590   -17.6960 hn         1 7YW       0.339500
     80 H42         -9.5440   -14.6720   -19.4680 hn         1 7YW       0.332500
     81 H43        -10.9540   -12.0030   -16.2340 hn         1 7YW       0.318500
     82 H44        -15.7020   -16.3350   -15.1090 hn         1 7YW       0.324500
     83 H45        -14.1950    -8.6270   -17.1100 ho         1 7YW       0.449000
     84 C18        -11.3180   -16.9960   -19.2310 c3         1 7YW      -0.121100
     85 C8         -10.3650   -20.2760   -19.3610 c3         1 7YW       0.193000
     86 O28        -14.2430    -9.6060   -17.1920 oh         1 7YW      -0.656000
@<TRIPOS>BOND
     1     1    11 ar  
     2     1    25 ar  
     3     1    39 1   
     4     2    40 1   
     5     2    41 1   
     6     2    42 1   
     7     2    85 1   
     8     3     4 1   
     9     3    19 1   
    10     3    28 1   
    11     3    43 1   
    12     4    29 1   
    13     4    35 2   
    14     5    44 1   
    15     5    45 1   
    16     5    46 1   
    17     5    85 1   
    18     6     7 1   
    19     6    20 1   
    20     6    29 1   
    21     6    47 1   
    22     7    30 1   
    23     7    36 2   
    24     8    48 1   
    25     8    49 1   
    26     8    50 1   
    27     8    85 1   
    28     9    10 1   
    29     9    17 1   
    30     9    30 1   
    31     9    51 1   
    32    10    12 1   
    33    10    55 1   
    34    10    56 1   
    35    11    18 ar  
    36    11    38 1   
    37    12    13 1   
    38    12    16 1   
    39    12    57 1   
    40    13    14 1   
    41    13    58 1   
    42    13    59 1   
    43    14    31 1   
    44    14    60 1   
    45    14    61 1   
    46    15    21 1   
    47    15    62 1   
    48    15    63 1   
    49    15    64 1   
    50    16    31 1   
    51    16    32 2   
    52    17    65 1   
    53    17    66 1   
    54    17    86 1   
    55    18    23 ar  
    56    18    67 1   
    57    19    34 1   
    58    19    68 1   
    59    19    84 1   
    60    20    21 1   
    61    20    69 1   
    62    20    70 1   
    63    21    22 1   
    64    21    71 1   
    65    22    72 1   
    66    22    73 1   
    67    22    74 1   
    68    23    24 ar  
    69    23    26 1   
    70    24    25 ar  
    71    24    75 1   
    72    25    76 1   
    73    26    37 1   
    74    26    77 1   
    75    26    78 1   
    76    27    28 1   
    77    27    33 2   
    78    27    37 1   
    79    28    79 1   
    80    29    80 1   
    81    30    81 1   
    82    31    82 1   
    83    34    85 1   
    84    52    84 1   
    85    53    84 1   
    86    54    84 1   
    87    83    86 1   
@<TRIPOS>SUBSTRUCTURE
     1 7YW         1 TEMP              0 ****  ****    0 ROOT
