@<TRIPOS>MOLECULE
7YX
   58    62     1     0     0
SMALL
abcg2


@<TRIPOS>ATOM
      1 CAI         40.8810    -2.4240    42.2670 c5         1 7YX      -0.087900
      2 CAJ         40.1120    -1.7460    41.1380 c5         1 7YX      -0.078400
      3 CAK         38.7790    -1.3970    41.7970 c5         1 7YX      -0.078400
      4 CAL         39.1880    -0.8850    43.1790 c5         1 7YX      -0.087900
      5 CAH         40.5050    -1.6200    43.5260 c5         1 7YX       0.124700
      6 NAE         40.3920    -2.4590    44.7130 n          1 7YX      -0.171800
      7 NAD         39.3790    -3.3640    44.6400 n2         1 7YX      -0.455300
      8 CAF         41.3150    -2.4220    45.7150 c          1 7YX       0.555000
      9 OAG         42.2380    -1.6250    45.7290 o          1 7YX      -0.539000
     10 CAA         41.1230    -3.4780    46.7680 c6         1 7YX      -0.167400
     11 CAB         39.6530    -3.7780    47.0130 c6         1 7YX      -0.129000
     12 CBE         38.9390    -2.6410    47.7510 c3         1 7YX      -0.088100
     13 CAC         39.0000    -4.0040    45.6780 ce         1 7YX       0.405900
     14 CAM         37.8520    -4.9110    45.5240 ca         1 7YX      -0.151900
     15 CAR         37.2460    -5.0970    44.2760 ca         1 7YX      -0.055000
     16 CAQ         36.1500    -5.9160    44.1300 ca         1 7YX      -0.162500
     17 CAN         37.2970    -5.5920    46.6060 ca         1 7YX      -0.055000
     18 CAO         36.1900    -6.4180    46.4740 ca         1 7YX      -0.162500
     19 CAP         35.5950    -6.5920    45.2250 ca         1 7YX       0.010000
     20 NAS         34.4640    -7.3610    44.9760 ns         1 7YX      -0.161000
     21 CAT         33.8830    -8.3040    45.7910 c          1 7YX       0.673100
     22 OBD         34.3340    -8.6270    46.8800 o          1 7YX      -0.618100
     23 NAU         32.7550    -8.8650    45.2920 n          1 7YX      -0.442800
     24 CAV         32.0850    -8.4860    44.0550 c5         1 7YX       0.150300
     25 CAW         30.8800    -9.3650    44.0630 ca         1 7YX      -0.070300
     26 CBC         29.8540    -9.4620    43.1420 ca         1 7YX      -0.143000
     27 CBB         28.8510   -10.3840    43.4130 ca         1 7YX       0.340900
     28 NBA         28.8300   -11.1620    44.4910 nb         1 7YX      -0.659000
     29 CAZ         29.8230   -11.0560    45.3670 ca         1 7YX       0.360900
     30 CAX         30.8690   -10.1670    45.1900 ca         1 7YX      -0.155300
     31 CAY         32.0610    -9.8990    46.0510 c5         1 7YX       0.174300
     32 H1          40.5360    -3.4550    42.3740 hc         1 7YX       0.052200
     33 H2          41.9590    -2.4530    42.1070 hc         1 7YX       0.052200
     34 H3          40.0070    -2.3810    40.2570 hc         1 7YX       0.043200
     35 H4          40.6240    -0.8330    40.8220 hc         1 7YX       0.043200
     36 H5          38.1970    -0.6680    41.2320 hc         1 7YX       0.043200
     37 H6          38.1680    -2.2990    41.8890 hc         1 7YX       0.043200
     38 H7          39.3800     0.1890    43.1340 hc         1 7YX       0.052200
     39 H8          38.4180    -1.0370    43.9350 hc         1 7YX       0.052200
     40 H9          41.2820    -0.8940    43.7470 h1         1 7YX       0.083700
     41 H10         41.6360    -4.3820    46.4200 hc         1 7YX       0.080700
     42 H11         41.6210    -3.1630    47.6840 hc         1 7YX       0.080700
     43 H12         39.5940    -4.6790    47.6240 hc         1 7YX       0.070700
     44 H13         39.4230    -2.4530    48.7100 hc         1 7YX       0.044033
     45 H14         38.9550    -1.7120    47.1800 hc         1 7YX       0.044033
     46 H15         37.8970    -2.8940    47.9450 hc         1 7YX       0.044033
     47 H16         37.6410    -4.5910    43.4060 ha         1 7YX       0.123000
     48 H17         35.7110    -6.0380    43.1460 ha         1 7YX       0.128500
     49 H18         37.7170    -5.4840    47.5980 ha         1 7YX       0.123000
     50 H19         35.7990    -6.9100    47.3490 ha         1 7YX       0.128500
     51 H20         34.1010    -7.2600    44.0400 hn         1 7YX       0.149000
     52 H21         32.7040    -8.6760    43.1700 h1         1 7YX       0.057200
     53 H22         31.8070    -7.4260    44.0450 h1         1 7YX       0.057200
     54 H23         29.8200    -8.8560    42.2460 ha         1 7YX       0.129000
     55 H24         28.0240   -10.4980    42.7210 h4         1 7YX       0.024100
     56 H25         29.7800   -11.7030    46.2380 h4         1 7YX       0.027100
     57 H26         32.6820   -10.7890    46.1840 h1         1 7YX       0.072200
     58 H27         31.7760    -9.5470    47.0460 h1         1 7YX       0.072200
@<TRIPOS>BOND
     1     1     2 1   
     2     1     5 1   
     3     1    32 1   
     4     1    33 1   
     5     2     3 1   
     6     2    34 1   
     7     2    35 1   
     8     3     4 1   
     9     3    36 1   
    10     3    37 1   
    11     4     5 1   
    12     4    38 1   
    13     4    39 1   
    14     5     6 1   
    15     5    40 1   
    16     6     7 1   
    17     6     8 1   
    18     7    13 2   
    19     8     9 2   
    20     8    10 1   
    21    10    11 1   
    22    10    41 1   
    23    10    42 1   
    24    11    12 1   
    25    11    13 1   
    26    11    43 1   
    27    12    44 1   
    28    12    45 1   
    29    12    46 1   
    30    13    14 1   
    31    14    15 ar  
    32    14    17 ar  
    33    15    16 ar  
    34    15    47 1   
    35    16    19 ar  
    36    16    48 1   
    37    17    18 ar  
    38    17    49 1   
    39    18    19 ar  
    40    18    50 1   
    41    19    20 1   
    42    20    21 1   
    43    20    51 1   
    44    21    22 2   
    45    21    23 1   
    46    23    24 1   
    47    23    31 1   
    48    24    25 1   
    49    24    52 1   
    50    24    53 1   
    51    25    26 ar  
    52    25    30 ar  
    53    26    27 ar  
    54    26    54 1   
    55    27    28 ar  
    56    27    55 1   
    57    28    29 ar  
    58    29    30 ar  
    59    29    56 1   
    60    30    31 1   
    61    31    57 1   
    62    31    58 1   
@<TRIPOS>SUBSTRUCTURE
     1 7YX         1 TEMP              0 ****  ****    0 ROOT
