@<TRIPOS>MOLECULE
7YX
   58    62     1     0     0
SMALL
No Charge or Current Charge


@<TRIPOS>ATOM
      1 CAI         41.1650    -1.8340    42.3400 c5         1 7YX      -0.087900
      2 CAJ         40.2930    -1.5110    41.1010 c5         1 7YX      -0.078400
      3 CAK         38.9120    -1.9940    41.6010 c5         1 7YX      -0.078400
      4 CAL         38.8240    -1.2510    42.9620 c5         1 7YX      -0.087900
      5 CAH         40.2890    -1.3190    43.5350 c5         1 7YX       0.124700
      6 NAE         40.3840    -2.3660    44.6060 n          1 7YX      -0.171800
      7 NAD         39.6290    -3.5360    44.5250 n2         1 7YX      -0.455300
      8 CAF         41.3270    -2.2030    45.6590 c          1 7YX       0.555000
      9 OAG         42.0410    -1.2130    45.7680 o          1 7YX      -0.539000
     10 CAA         41.3490    -3.3180    46.7140 c6         1 7YX      -0.167400
     11 CAB         39.9280    -3.9130    46.9480 c6         1 7YX      -0.129000
     12 CBE         39.0840    -2.9920    47.8750 c3         1 7YX      -0.088100
     13 CAC         39.1970    -4.1340    45.5980 ce         1 7YX       0.405900
     14 CAM         37.9440    -4.9750    45.5280 ca         1 7YX      -0.151900
     15 CAR         37.1430    -4.9610    44.3620 ca         1 7YX      -0.055000
     16 CAQ         35.9830    -5.7470    44.2730 ca         1 7YX      -0.162500
     17 CAN         37.5470    -5.8190    46.5910 ca         1 7YX      -0.055000
     18 CAO         36.3840    -6.6040    46.4980 ca         1 7YX      -0.162500
     19 CAP         35.5870    -6.5740    45.3360 ca         1 7YX       0.010000
     20 NAS         34.4010    -7.3400    45.1690 ns         1 7YX      -0.161000
     21 CAT         33.7210    -8.2130    46.0070 c          1 7YX       0.673100
     22 OBD         34.0690    -8.4870    47.1480 o          1 7YX      -0.618100
     23 NAU         32.5640    -8.7880    45.4550 n          1 7YX      -0.442800
     24 CAV         32.0690    -8.5050    44.0660 c5         1 7YX       0.150300
     25 CAW         30.8400    -9.3720    44.0350 ca         1 7YX      -0.070300
     26 CBC         29.9240    -9.5480    42.9880 ca         1 7YX      -0.143000
     27 CBB         28.8400   -10.4230    43.2000 ca         1 7YX       0.340900
     28 NBA         28.6450   -11.0980    44.3650 nb         1 7YX      -0.659000
     29 CAZ         29.5460   -10.9100    45.3640 ca         1 7YX       0.360900
     30 CAX         30.6470   -10.0530    45.2160 ca         1 7YX      -0.155300
     31 CAY         31.7160    -9.7520    46.2290 c5         1 7YX       0.174300
     32 H1          41.3620    -2.9120    42.3960 hc         1 7YX       0.052200
     33 H2          42.1410    -1.3370    42.3040 hc         1 7YX       0.052200
     34 H3          40.6260    -2.0480    40.2050 hc         1 7YX       0.043200
     35 H4          40.2940    -0.4390    40.8650 hc         1 7YX       0.043200
     36 H5          38.0980    -1.7170    40.9210 hc         1 7YX       0.043200
     37 H6          38.8810    -3.0830    41.7250 hc         1 7YX       0.043200
     38 H7          38.5430    -0.2040    42.7960 hc         1 7YX       0.052200
     39 H8          38.0560    -1.6610    43.6270 hc         1 7YX       0.052200
     40 H9          40.6110    -0.3300    43.8900 h1         1 7YX       0.083700
     41 H10         41.9460    -4.1260    46.2700 hc         1 7YX       0.080700
     42 H11         41.8570    -2.9860    47.6300 hc         1 7YX       0.080700
     43 H12         40.0510    -4.8710    47.4690 hc         1 7YX       0.070700
     44 H13         39.5810    -2.8370    48.8400 hc         1 7YX       0.044033
     45 H14         38.9240    -2.0060    47.4210 hc         1 7YX       0.044033
     46 H15         38.0970    -3.4220    48.0820 hc         1 7YX       0.044033
     47 H16         37.4090    -4.3350    43.5130 ha         1 7YX       0.123000
     48 H17         35.3860    -5.7100    43.3640 ha         1 7YX       0.128500
     49 H18         38.1280    -5.8830    47.5070 ha         1 7YX       0.123000
     50 H19         36.1260    -7.2330    47.3440 ha         1 7YX       0.128500
     51 H20         33.9710    -7.2240    44.2620 hn         1 7YX       0.149000
     52 H21         32.7950    -8.8120    43.3000 h1         1 7YX       0.057200
     53 H22         31.8150    -7.4460    43.9270 h1         1 7YX       0.057200
     54 H23         30.0390    -9.0300    42.0400 ha         1 7YX       0.129000
     55 H24         28.1030   -10.5910    42.4150 h4         1 7YX       0.024100
     56 H25         29.3770   -11.4570    46.2910 h4         1 7YX       0.027100
     57 H26         32.2750   -10.6550    46.5090 h1         1 7YX       0.072200
     58 H27         31.2970    -9.2920    47.1350 h1         1 7YX       0.072200
@<TRIPOS>BOND
     1     1     2 1   
     2     1     5 1   
     3     1    32 1   
     4     1    33 1   
     5     2     3 1   
     6     2    34 1   
     7     2    35 1   
     8     3     4 1   
     9     3    36 1   
    10     3    37 1   
    11     4     5 1   
    12     4    38 1   
    13     4    39 1   
    14     5     6 1   
    15     5    40 1   
    16     6     7 1   
    17     6     8 1   
    18     7    13 2   
    19     8     9 2   
    20     8    10 1   
    21    10    11 1   
    22    10    41 1   
    23    10    42 1   
    24    11    12 1   
    25    11    13 1   
    26    11    43 1   
    27    12    44 1   
    28    12    45 1   
    29    12    46 1   
    30    13    14 1   
    31    14    15 ar  
    32    14    17 ar  
    33    15    16 ar  
    34    15    47 1   
    35    16    19 ar  
    36    16    48 1   
    37    17    18 ar  
    38    17    49 1   
    39    18    19 ar  
    40    18    50 1   
    41    19    20 1   
    42    20    21 1   
    43    20    51 1   
    44    21    22 2   
    45    21    23 1   
    46    23    24 1   
    47    23    31 1   
    48    24    25 1   
    49    24    52 1   
    50    24    53 1   
    51    25    26 ar  
    52    25    30 ar  
    53    26    27 ar  
    54    26    54 1   
    55    27    28 ar  
    56    27    55 1   
    57    28    29 ar  
    58    29    30 ar  
    59    29    56 1   
    60    30    31 1   
    61    31    57 1   
    62    31    58 1   
@<TRIPOS>SUBSTRUCTURE
     1 7YX         1 TEMP              0 ****  ****    0 ROOT
