@<TRIPOS>MOLECULE
7YY
   54    58     1     0     0
SMALL
No Charge or Current Charge


@<TRIPOS>ATOM
      1 C11          9.2730     8.9950    -1.4300 cc         1 7YY       0.779800
      2 C13          8.5130     8.9820    -3.8450 ca         1 7YY       0.251000
      3 C14          9.7200     9.0720    -4.5750 ca         1 7YY      -0.012000
      4 C15          9.6970     8.7530    -5.9390 ca         1 7YY      -0.153000
      5 N02         14.1120    10.4140     2.1110 na         1 7YY      -0.056700
      6 C03         14.1040     9.9290     3.4000 cc         1 7YY       0.415400
      7 N04         13.2450     8.9260     3.4610 nd         1 7YY      -0.695000
      8 C05         12.7460     8.8400     2.1740 cd         1 7YY       0.518300
      9 C06         11.7120     7.8100     1.7630 c3         1 7YY       0.086700
     10 N07         10.8130     8.2200     0.6370 n          1 7YY      -0.388400
     11 C08         11.1110     7.7990    -0.6500 c          1 7YY       0.738400
     12 O09         12.0580     7.0790    -0.9140 o          1 7YY      -0.503000
     13 N10         10.2780     8.2150    -1.6700 nd         1 7YY      -0.757100
     14 N12          8.4680     9.3070    -2.4760 nu         1 7YY      -0.921200
     15 C16         10.7340     8.7490    -6.9100 cc         1 7YY      -0.182100
     16 N17         10.1400     8.3510    -8.1020 na         1 7YY       0.156500
     17 C18         10.7890     8.1870    -9.4070 c3         1 7YY       0.058900
     18 N19          8.7720     8.0980    -7.9530 nc         1 7YY      -0.277400
     19 C20          8.5610     8.3640    -6.5990 ca         1 7YY      -0.057000
     20 C21          7.3470     8.2750    -5.9030 ca         1 7YY      -0.059000
     21 C22          7.3250     8.5880    -4.5260 ca         1 7YY       0.133000
     22 Cl2          5.7890     8.4760    -3.6570 cl         1 7YY      -0.195000
     23 N24          8.9590     9.4630    -0.1760 n          1 7YY      -0.377300
     24 C25          7.8390    10.4210     0.0530 c3         1 7YY       0.145300
     25 C26          6.4460     9.8080    -0.1140 ca         1 7YY      -0.146300
     26 C27          5.3970    10.5540    -0.6980 ca         1 7YY       0.184000
     27 F28          5.6150    11.8170    -1.1260 f          1 7YY      -0.170000
     28 C29          4.1190     9.9970    -0.8500 ca         1 7YY      -0.171000
     29 C30          3.8730     8.6860    -0.4150 ca         1 7YY       0.168000
     30 F31          2.6390     8.1540    -0.5660 f          1 7YY      -0.149000
     31 C32          4.9040     7.9350     0.1780 ca         1 7YY       0.125000
     32 F33          4.6710     6.6720     0.6050 f          1 7YY      -0.150000
     33 C34          6.1840     8.4930     0.3330 ca         1 7YY      -0.087000
     34 C35          9.7470     9.0690     0.9090 c          1 7YY       0.623000
     35 O36          9.5150     9.4450     2.0480 o          1 7YY      -0.539000
     36 N37         13.2500     9.7220     1.3210 nc         1 7YY      -0.532800
     37 H1          10.6420     9.3870    -4.0950 ha         1 7YY       0.127000
     38 H2          14.2510    12.3010     1.1800 h1         1 7YY       0.058700
     39 H3          15.5380    11.9520     2.3710 h1         1 7YY       0.058700
     40 H4          15.5630    11.1550     0.7710 h1         1 7YY       0.058700
     41 H5          14.7180    10.3300     4.1980 h5         1 7YY       0.062100
     42 H6          11.1010     7.5750     2.6430 h1         1 7YY       0.093200
     43 H7          12.2440     6.8860     1.5100 h1         1 7YY       0.093200
     44 H8           7.5350     9.5150    -2.1380 hn         1 7YY       0.516000
     45 H9          11.7920     8.9830    -6.8600 h4         1 7YY       0.231000
     46 H10         10.2800     8.8140   -10.1500 h1         1 7YY       0.065033
     47 H11         11.8410     8.4870    -9.3400 h1         1 7YY       0.065033
     48 H12         10.7300     7.1370    -9.7150 h1         1 7YY       0.065033
     49 H13          6.4370     7.9710    -6.4130 ha         1 7YY       0.147000
     50 H14          7.8990    10.8650     1.0550 h1         1 7YY       0.087700
     51 H15          7.9670    11.2590    -0.6450 h1         1 7YY       0.087700
     52 H16          3.3220    10.5780    -1.3050 ha         1 7YY       0.157000
     53 H17          6.9650     7.8980     0.8020 ha         1 7YY       0.149000
     54 C01         14.9150    11.5230     1.5760 c3         1 7YY       0.074900
@<TRIPOS>BOND
     1     1    13 2   
     2     1    14 1   
     3     1    23 1   
     4     2     3 ar  
     5     2    14 1   
     6     2    21 ar  
     7     3     4 ar  
     8     3    37 1   
     9     4    15 2   
    10     4    19 ar  
    11     5     6 1   
    12     5    36 1   
    13     5    54 1   
    14     6     7 2   
    15     6    41 1   
    16     7     8 1   
    17     8     9 1   
    18     8    36 2   
    19     9    10 1   
    20     9    42 1   
    21     9    43 1   
    22    10    11 1   
    23    10    34 1   
    24    11    12 2   
    25    11    13 1   
    26    14    44 1   
    27    15    16 1   
    28    15    45 1   
    29    16    17 1   
    30    16    18 1   
    31    17    46 1   
    32    17    47 1   
    33    17    48 1   
    34    18    19 2   
    35    19    20 ar  
    36    20    21 ar  
    37    20    49 1   
    38    21    22 1   
    39    23    24 1   
    40    23    34 1   
    41    24    25 1   
    42    24    50 1   
    43    24    51 1   
    44    25    26 ar  
    45    25    33 ar  
    46    26    27 1   
    47    26    28 ar  
    48    28    29 ar  
    49    28    52 1   
    50    29    30 1   
    51    29    31 ar  
    52    31    32 1   
    53    31    33 ar  
    54    33    53 1   
    55    34    35 2   
    56    38    54 1   
    57    39    54 1   
    58    40    54 1   
@<TRIPOS>SUBSTRUCTURE
     1 7YY         1 TEMP              0 ****  ****    0 ROOT
