@<TRIPOS>MOLECULE
7YY
   54    58     1     0     0
SMALL
bcc


@<TRIPOS>ATOM
      1 C11          9.2370     9.0500    -1.5830 cc         1 7YY       0.779800
      2 C13          8.7780     8.8800    -3.9340 ca         1 7YY       0.112600
      3 C14          9.5280     9.5830    -4.8320 ca         1 7YY      -0.030000
      4 C15          9.7510     9.0190    -6.1010 ca         1 7YY      -0.153000
      5 N02         13.8440    10.0950     2.0220 na         1 7YY      -0.027400
      6 C03         14.0400     9.3720     3.1230 cc         1 7YY       0.415400
      7 N04         13.1320     8.4250     3.2110 nd         1 7YY      -0.695000
      8 C05         12.3890     8.6210     2.1030 cd         1 7YY       0.518300
      9 C06         11.2270     7.7470     1.7640 c3         1 7YY       0.086700
     10 N07         10.5100     8.2170     0.5950 n          1 7YY      -0.522400
     11 C08         10.9380     7.8010    -0.6740 c          1 7YY       0.880900
     12 O09         11.9030     7.0740    -0.7730 o          1 7YY      -0.578500
     13 N10         10.2190     8.2190    -1.7410 nd         1 7YY      -0.757100
     14 N12          8.5210     9.4240    -2.6530 nu         1 7YY      -0.727600
     15 C16         10.4460     9.3990    -7.2460 cc         1 7YY      -0.132100
     16 N17         10.2830     8.4020    -8.1190 na         1 7YY       0.185800
     17 C18         10.8290     8.3390    -9.4560 c3         1 7YY       0.029600
     18 N19          9.5480     7.3910    -7.6730 nc         1 7YY      -0.277400
     19 C20          9.2100     7.7490    -6.4340 ca         1 7YY      -0.057000
     20 C21          8.4290     7.0310    -5.5020 ca         1 7YY      -0.077000
     21 C22          8.2320     7.6060    -4.2820 ca         1 7YY       0.041400
     22 CL2          7.2840     6.7800    -3.0940 cl         1 7YY      -0.103400
     23 N24          8.8930     9.5880    -0.3690 n          1 7YY      -0.444300
     24 C25          7.8860    10.6270    -0.2340 c3         1 7YY       0.145300
     25 C26          6.4780    10.0940    -0.1320 ca         1 7YY      -0.146300
     26 C27          5.4160    10.9840    -0.1290 ca         1 7YY       0.148900
     27 F28          5.6790    12.2920    -0.2460 f          1 7YY      -0.134900
     28 C29          4.0990    10.5890    -0.0080 ca         1 7YY      -0.189000
     29 C30          3.8370     9.2400     0.1150 ca         1 7YY       0.132900
     30 F31          2.5810     8.8120     0.2350 f          1 7YY      -0.113900
     31 C32          4.8710     8.3230     0.1120 ca         1 7YY       0.089900
     32 F33          4.5920     7.0230     0.2320 f          1 7YY      -0.114900
     33 C34          6.1800     8.7420    -0.0110 ca         1 7YY      -0.105000
     34 C35          9.5340     9.1550     0.7880 c          1 7YY       0.832500
     35 O36          9.2280     9.5830     1.8760 o          1 7YY      -0.614500
     36 N37         12.7860     9.6230     1.3560 nc         1 7YY      -0.532800
     37 H1           9.9370    10.5470    -4.5570 ha         1 7YY       0.145000
     38 H2          13.9640    12.0980     1.4520 h1         1 7YY       0.058700
     39 H3          15.4090    11.4270     2.2270 h1         1 7YY       0.058700
     40 H4          15.0240    10.9900     0.5540 h1         1 7YY       0.058700
     41 H5          14.8380     9.5680     3.8240 h5         1 7YY       0.062100
     42 H6          10.5440     7.6940     2.6090 h1         1 7YY       0.093200
     43 H7          11.5700     6.7320     1.5730 h1         1 7YY       0.093200
     44 H8           7.6710     9.9570    -2.5460 hn         1 7YY       0.460800
     45 H9          11.0230    10.2780    -7.4810 h4         1 7YY       0.181000
     46 H10         10.0220     8.2450   -10.1790 h1         1 7YY       0.065033
     47 H11         11.3880     9.2480    -9.6550 h1         1 7YY       0.065033
     48 H12         11.4920     7.4810    -9.5440 h1         1 7YY       0.065033
     49 H13          8.0080     6.0660    -5.7480 ha         1 7YY       0.165000
     50 H14          8.1260    11.2040     0.6580 h1         1 7YY       0.087700
     51 H15          7.9920    11.3230    -1.0660 h1         1 7YY       0.087700
     52 H16          3.2950    11.3130    -0.0080 ha         1 7YY       0.175000
     53 H17          6.9590     7.9910    -0.0100 ha         1 7YY       0.167000
     54 C01         14.6020    11.2200     1.5300 c3         1 7YY       0.045600
@<TRIPOS>BOND
     1     1    13 2   
     2     1    14 1   
     3     1    23 1   
     4     2     3 ar  
     5     2    14 1   
     6     2    21 ar  
     7     3     4 ar  
     8     3    37 1   
     9     4    15 2   
    10     4    19 ar  
    11     5     6 1   
    12     5    36 1   
    13     5    54 1   
    14     6     7 2   
    15     6    41 1   
    16     7     8 1   
    17     8     9 1   
    18     8    36 2   
    19     9    10 1   
    20     9    42 1   
    21     9    43 1   
    22    10    11 1   
    23    10    34 1   
    24    11    12 2   
    25    11    13 1   
    26    14    44 1   
    27    15    16 1   
    28    15    45 1   
    29    16    17 1   
    30    16    18 1   
    31    17    46 1   
    32    17    47 1   
    33    17    48 1   
    34    18    19 2   
    35    19    20 ar  
    36    20    21 ar  
    37    20    49 1   
    38    21    22 1   
    39    23    24 1   
    40    23    34 1   
    41    24    25 1   
    42    24    50 1   
    43    24    51 1   
    44    25    26 ar  
    45    25    33 ar  
    46    26    27 1   
    47    26    28 ar  
    48    28    29 ar  
    49    28    52 1   
    50    29    30 1   
    51    29    31 ar  
    52    31    32 1   
    53    31    33 ar  
    54    33    53 1   
    55    34    35 2   
    56    38    54 1   
    57    39    54 1   
    58    40    54 1   
@<TRIPOS>SUBSTRUCTURE
     1 7YY         1 TEMP              0 ****  ****    0 ROOT
