@<TRIPOS>MOLECULE
7YZ
   83    85     1     0     0
SMALL
abcg2


@<TRIPOS>ATOM
      1 C1          -5.6310   -20.3960   -17.7180 ca         1 7YZ      -0.120300
      2 C11         -9.9930   -17.4940   -18.1380 c3         1 7YZ       0.058700
      3 C12        -10.1090   -16.1400   -17.4390 c          1 7YZ       0.579100
      4 C13         -7.4850   -12.7320   -18.0300 c6         1 7YZ      -0.060700
      5 C14         -9.8460   -13.7230   -17.6550 c3         1 7YZ       0.038700
      6 C15        -11.3020   -13.2620   -17.7590 c          1 7YZ       0.586100
      7 C16         -6.7070   -14.0060   -18.3430 c6         1 7YZ      -0.072900
      8 C17        -13.1670   -12.2550   -16.4790 c3         1 7YZ       0.104700
      9 C18         -5.3090   -13.9610   -17.7070 c6         1 7YZ      -0.070400
     10 C19        -13.9960   -13.1690   -15.5770 c3         1 7YZ      -0.071400
     11 C2          -6.2490   -21.6310   -17.8930 ca         1 7YZ      -0.083000
     12 C20        -14.1710   -14.5720   -16.1360 c5         1 7YZ      -0.154700
     13 C21        -14.9710   -14.6710   -17.4350 c5         1 7YZ      -0.095400
     14 C22        -15.6300   -16.0490   -17.3610 c5         1 7YZ       0.100000
     15 C23         -4.7410   -12.5360   -17.6380 c6         1 7YZ      -0.075400
     16 C24        -14.9290   -15.4910   -15.1880 c          1 7YZ       0.564000
     17 C25         -5.2680   -11.6980   -18.7960 c6         1 7YZ      -0.070400
     18 C26         -6.7900   -11.5320   -18.6980 c6         1 7YZ      -0.072900
     19 C3          -5.9190   -22.4100   -18.9880 ca         1 7YZ       0.113000
     20 C30        -11.3880   -18.0810   -18.4020 c3         1 7YZ      -0.069700
     21 C31        -11.2860   -19.4200   -19.1260 c3         1 7YZ      -0.092600
     22 C32        -12.2380   -17.1080   -19.2110 c3         1 7YZ      -0.092600
     23 C34         -8.9580   -12.7500   -18.4370 c3         1 7YZ      -0.079400
     24 C4          -4.9790   -21.9910   -19.9180 ca         1 7YZ      -0.093000
     25 C5          -4.3640   -20.7620   -19.7350 ca         1 7YZ      -0.107000
     26 C6          -4.6910   -19.9650   -18.6460 ca         1 7YZ      -0.075000
     27 C7          -5.9840   -19.5500   -16.5250 c3         1 7YZ       0.229900
     28 C8         -13.0820   -10.8300   -15.9380 c3         1 7YZ       0.150600
     29 C9          -7.8720   -18.4080   -17.3490 c          1 7YZ       0.641100
     30 N10         -9.2170   -18.3940   -17.3200 ns         1 7YZ      -0.487900
     31 N13         -9.7370   -15.0730   -18.1600 ns         1 7YZ      -0.479900
     32 N16        -11.8180   -12.7620   -16.6270 ns         1 7YZ      -0.498900
     33 N23        -15.7410   -16.2610   -15.9340 ns         1 7YZ      -0.517900
     34 O26        -14.8120   -15.5350   -13.9750 o          1 7YZ      -0.556000
     35 O29         -7.1820   -17.7260   -18.0760 o          1 7YZ      -0.545000
     36 O33        -10.5200   -16.0610   -16.2900 o          1 7YZ      -0.609100
     37 O8          -7.3850   -19.2890   -16.4630 os         1 7YZ      -0.452100
     38 O9         -14.3790   -10.2900   -15.8770 oh         1 7YZ      -0.656000
     39 CL7         -6.6960   -23.9470   -19.2000 cl         1 7YZ      -0.206000
     40 H1          -9.4880   -17.3840   -19.1020 h1         1 7YZ       0.080700
     41 H2          -7.4550   -12.5850   -16.9420 hc         1 7YZ       0.045700
     42 H3          -9.5260   -13.7240   -16.6100 h1         1 7YZ       0.077700
     43 H4          -7.2310   -14.8930   -17.9910 hc         1 7YZ       0.042200
     44 H5          -6.6280   -14.1110   -19.4310 hc         1 7YZ       0.042200
     45 H6         -13.6110   -12.2190   -17.4750 h1         1 7YZ       0.091700
     46 H7          -4.6340   -14.6030   -18.2780 hc         1 7YZ       0.039200
     47 H8          -5.3530   -14.3850   -16.7010 hc         1 7YZ       0.039200
     48 H9         -13.5190   -13.2210   -14.5940 hc         1 7YZ       0.066200
     49 H10        -14.9790   -12.7180   -15.4260 hc         1 7YZ       0.066200
     50 H11         -6.9810   -21.9850   -17.1770 ha         1 7YZ       0.133000
     51 H12        -13.1850   -15.0370   -16.2760 hc         1 7YZ       0.087700
     52 H13        -14.3590   -14.5540   -18.3270 hc         1 7YZ       0.064700
     53 H14        -15.7410   -13.8950   -17.4570 hc         1 7YZ       0.064700
     54 H15        -16.6080   -16.0730   -17.8390 h1         1 7YZ       0.041200
     55 H16        -15.0100   -16.8200   -17.8280 h1         1 7YZ       0.041200
     56 H17         -3.6500   -12.5630   -17.6420 hc         1 7YZ       0.037200
     57 H18         -5.0290   -12.0610   -16.6950 hc         1 7YZ       0.037200
     58 H19         -5.0040   -12.1890   -19.7370 hc         1 7YZ       0.039200
     59 H20         -4.7850   -10.7190   -18.8200 hc         1 7YZ       0.039200
     60 H21         -7.0350   -10.6250   -18.1380 hc         1 7YZ       0.042200
     61 H22         -7.2020   -11.3880   -19.7020 hc         1 7YZ       0.042200
     62 H23        -11.8740   -18.2410   -17.4330 hc         1 7YZ       0.065700
     63 H24        -10.7150   -20.1570   -18.5620 hc         1 7YZ       0.041367
     64 H25        -12.2800   -19.8330   -19.2950 hc         1 7YZ       0.041367
     65 H26        -10.8070   -19.2990   -20.1000 hc         1 7YZ       0.041367
     66 H27        -12.4380   -16.1770   -18.6800 hc         1 7YZ       0.041367
     67 H28        -11.7540   -16.8580   -20.1570 hc         1 7YZ       0.041367
     68 H29        -13.2040   -17.5580   -19.4420 hc         1 7YZ       0.041367
     69 H30         -9.3520   -11.7420   -18.2780 hc         1 7YZ       0.055700
     70 H31         -9.0540   -12.9420   -19.5110 hc         1 7YZ       0.055700
     71 H32         -4.7300   -22.6110   -20.7690 ha         1 7YZ       0.129000
     72 H33         -3.6310   -20.4220   -20.4540 ha         1 7YZ       0.120000
     73 H34         -4.2150   -19.0020   -18.5200 ha         1 7YZ       0.124000
     74 H35         -5.7640   -20.0840   -15.6010 h1         1 7YZ       0.070200
     75 H36         -5.4070   -18.6240   -16.5220 h1         1 7YZ       0.070200
     76 H37        -12.6020   -10.8530   -14.9490 h1         1 7YZ       0.022700
     77 H38        -12.4290   -10.2470   -16.6000 h1         1 7YZ       0.022700
     78 H39         -9.6950   -18.9410   -16.6200 hn         1 7YZ       0.339500
     79 H40         -9.4570   -15.2030   -19.1190 hn         1 7YZ       0.331500
     80 H41        -11.2590   -12.8160   -15.7880 hn         1 7YZ       0.318500
     81 H42        -16.2630   -17.0260   -15.5370 hn         1 7YZ       0.324500
     82 H43        -14.3230    -9.4130   -15.4860 ho         1 7YZ       0.448000
     83 O38        -11.9000   -13.3320   -18.8220 o          1 7YZ      -0.611100
@<TRIPOS>BOND
     1     1    11 ar  
     2     1    26 ar  
     3     1    27 1   
     4     2     3 1   
     5     2    20 1   
     6     2    30 1   
     7     2    40 1   
     8     3    31 1   
     9     3    36 2   
    10     4     7 1   
    11     4    18 1   
    12     4    23 1   
    13     4    41 1   
    14     5     6 1   
    15     5    23 1   
    16     5    31 1   
    17     5    42 1   
    18     6    32 1   
    19     6    83 2   
    20     7     9 1   
    21     7    43 1   
    22     7    44 1   
    23     8    10 1   
    24     8    28 1   
    25     8    32 1   
    26     8    45 1   
    27     9    15 1   
    28     9    46 1   
    29     9    47 1   
    30    10    12 1   
    31    10    48 1   
    32    10    49 1   
    33    11    19 ar  
    34    11    50 1   
    35    12    13 1   
    36    12    16 1   
    37    12    51 1   
    38    13    14 1   
    39    13    52 1   
    40    13    53 1   
    41    14    33 1   
    42    14    54 1   
    43    14    55 1   
    44    15    17 1   
    45    15    56 1   
    46    15    57 1   
    47    16    33 1   
    48    16    34 2   
    49    17    18 1   
    50    17    58 1   
    51    17    59 1   
    52    18    60 1   
    53    18    61 1   
    54    19    24 ar  
    55    19    39 1   
    56    20    21 1   
    57    20    22 1   
    58    20    62 1   
    59    21    63 1   
    60    21    64 1   
    61    21    65 1   
    62    22    66 1   
    63    22    67 1   
    64    22    68 1   
    65    23    69 1   
    66    23    70 1   
    67    24    25 ar  
    68    24    71 1   
    69    25    26 ar  
    70    25    72 1   
    71    26    73 1   
    72    27    37 1   
    73    27    74 1   
    74    27    75 1   
    75    28    38 1   
    76    28    76 1   
    77    28    77 1   
    78    29    30 1   
    79    29    35 2   
    80    29    37 1   
    81    30    78 1   
    82    31    79 1   
    83    32    80 1   
    84    33    81 1   
    85    38    82 1   
@<TRIPOS>SUBSTRUCTURE
     1 7YZ         1 TEMP              0 ****  ****    0 ROOT
