@<TRIPOS>MOLECULE
7YZ
   83    85     1     0     0
SMALL
No Charge or Current Charge


@<TRIPOS>ATOM
      1 C1          -4.7830   -20.6090   -19.1070 ca         1 7YZ      -0.120300
      2 C11         -9.0370   -17.4920   -18.3880 c3         1 7YZ       0.058700
      3 C12         -9.5280   -16.3570   -17.4450 c          1 7YZ       0.579100
      4 C13         -8.0040   -13.2570   -17.0190 c6         1 7YZ      -0.060700
      5 C14        -10.5300   -14.0260   -17.4130 c3         1 7YZ       0.038700
      6 C15        -11.8900   -13.5490   -18.0020 c          1 7YZ       0.586100
      7 C16         -7.1220   -13.9200   -18.1180 c6         1 7YZ      -0.072900
      8 C17        -13.8560   -12.0200   -17.5920 c3         1 7YZ       0.104700
      9 C18         -5.7830   -14.4540   -17.5310 c6         1 7YZ      -0.070400
     10 C19        -14.6980   -11.7930   -16.3080 c3         1 7YZ      -0.071400
     11 C2          -5.4600   -21.6890   -18.5040 ca         1 7YZ      -0.083000
     12 C20        -14.8910   -13.0530   -15.4160 c5         1 7YZ      -0.154700
     13 C21        -15.5910   -14.2550   -16.1100 c5         1 7YZ      -0.095400
     14 C22        -16.0840   -15.0720   -14.8840 c5         1 7YZ       0.100000
     15 C23         -5.2960   -13.6510   -16.2920 c6         1 7YZ      -0.075400
     16 C24        -15.7760   -12.8150   -14.1850 c          1 7YZ       0.564000
     17 C25         -5.7180   -12.1650   -16.3780 c6         1 7YZ      -0.070400
     18 C26         -7.2650   -11.9970   -16.4630 c6         1 7YZ      -0.072900
     19 C3          -5.7380   -22.8520   -19.2420 ca         1 7YZ       0.113000
     20 C30        -10.1070   -18.6140   -18.5920 c3         1 7YZ      -0.069700
     21 C31         -9.5900   -19.7800   -19.4740 c3         1 7YZ      -0.092600
     22 C32        -11.4420   -18.0670   -19.1580 c3         1 7YZ      -0.092600
     23 C34         -9.4530   -12.9010   -17.4960 c3         1 7YZ      -0.079400
     24 C4          -5.3390   -22.9480   -20.5850 ca         1 7YZ      -0.093000
     25 C5          -4.6610   -21.8770   -21.1920 ca         1 7YZ      -0.107000
     26 C6          -4.3840   -20.7110   -20.4560 ca         1 7YZ      -0.075000
     27 C7          -4.4970   -19.3380   -18.3090 c3         1 7YZ       0.229900
     28 C8         -13.6770   -10.7380   -18.4500 c3         1 7YZ       0.150600
     29 C9          -6.6630   -18.3280   -18.5660 c          1 7YZ       0.641100
     30 N10         -7.7830   -18.0480   -17.8380 ns         1 7YZ      -0.487900
     31 N13        -10.1030   -15.2740   -18.0800 ns         1 7YZ      -0.479900
     32 N16        -12.5500   -12.5990   -17.2500 ns         1 7YZ      -0.498900
     33 N23        -16.4410   -13.9910   -13.9680 ns         1 7YZ      -0.517900
     34 O26        -16.0590   -11.7720   -13.6180 o          1 7YZ      -0.556000
     35 O29         -6.5330   -18.1230   -19.7620 o          1 7YZ      -0.545000
     36 O33         -9.3930   -16.3990   -16.2270 o          1 7YZ      -0.609100
     37 O8          -5.7240   -18.8530   -17.7320 os         1 7YZ      -0.452100
     38 O9         -14.9410   -10.2420   -18.9170 oh         1 7YZ      -0.656000
     39 Cl7         -6.5920   -24.1890   -18.4830 cl         1 7YZ      -0.206000
     40 H1          -8.8180   -17.0330   -19.3610 h1         1 7YZ       0.080700
     41 H2          -8.1210   -13.9660   -16.1880 hc         1 7YZ       0.045700
     42 H3         -10.7140   -14.2450   -16.3530 h1         1 7YZ       0.077700
     43 H4          -7.6390   -14.7380   -18.6310 hc         1 7YZ       0.042200
     44 H5          -6.9050   -13.1770   -18.8980 hc         1 7YZ       0.042200
     45 H6         -14.3980   -12.7470   -18.2140 h1         1 7YZ       0.091700
     46 H7          -5.0150   -14.4320   -18.3160 hc         1 7YZ       0.039200
     47 H8          -5.8980   -15.5100   -17.2480 hc         1 7YZ       0.039200
     48 H9         -14.2250   -10.9980   -15.7160 hc         1 7YZ       0.066200
     49 H10        -15.6830   -11.4060   -16.5980 hc         1 7YZ       0.066200
     50 H11         -5.7770   -21.6250   -17.4660 ha         1 7YZ       0.133000
     51 H12        -13.9200   -13.3970   -15.0400 hc         1 7YZ       0.087700
     52 H13        -14.9220   -14.8310   -16.7600 hc         1 7YZ       0.064700
     53 H14        -16.4410   -13.9240   -16.7190 hc         1 7YZ       0.064700
     54 H15        -16.9350   -15.7180   -15.1350 h1         1 7YZ       0.041200
     55 H16        -15.2820   -15.6980   -14.4690 h1         1 7YZ       0.041200
     56 H17         -4.2050   -13.7320   -16.1990 hc         1 7YZ       0.037200
     57 H18         -5.7160   -14.0930   -15.3770 hc         1 7YZ       0.037200
     58 H19         -5.2520   -11.7140   -17.2650 hc         1 7YZ       0.039200
     59 H20         -5.3290   -11.6100   -15.5140 hc         1 7YZ       0.039200
     60 H21         -7.6630   -11.7650   -15.4660 hc         1 7YZ       0.042200
     61 H22         -7.4870   -11.1210   -17.0880 hc         1 7YZ       0.042200
     62 H23        -10.3290   -19.0370   -17.6040 hc         1 7YZ       0.065700
     63 H24         -8.7350   -20.2850   -19.0090 hc         1 7YZ       0.041367
     64 H25        -10.3730   -20.5340   -19.6190 hc         1 7YZ       0.041367
     65 H26         -9.2810   -19.4160   -20.4610 hc         1 7YZ       0.041367
     66 H27        -11.9070   -17.3550   -18.4660 hc         1 7YZ       0.041367
     67 H28        -11.2840   -17.5660   -20.1200 hc         1 7YZ       0.041367
     68 H29        -12.1590   -18.8830   -19.3130 hc         1 7YZ       0.041367
     69 H30         -9.8240   -12.0590   -16.8970 hc         1 7YZ       0.055700
     70 H31         -9.4120   -12.5270   -18.5270 hc         1 7YZ       0.055700
     71 H32         -5.5560   -23.8500   -21.1530 ha         1 7YZ       0.129000
     72 H33         -4.3510   -21.9490   -22.2330 ha         1 7YZ       0.120000
     73 H34         -3.8640   -19.8850   -20.9380 ha         1 7YZ       0.124000
     74 H35         -3.7780   -19.5780   -17.5150 h1         1 7YZ       0.070200
     75 H36         -4.0350   -18.5740   -18.9490 h1         1 7YZ       0.070200
     76 H37        -13.1650    -9.9720   -17.8510 h1         1 7YZ       0.022700
     77 H38        -13.0310   -10.9730   -19.3070 h1         1 7YZ       0.022700
     78 H39         -7.7260   -18.2380   -16.8450 hn         1 7YZ       0.339500
     79 H40        -10.2200   -15.3370   -19.0860 hn         1 7YZ       0.331500
     80 H41        -12.0960   -12.2910   -16.3980 hn         1 7YZ       0.318500
     81 H42        -17.1470   -14.0310   -13.2420 hn         1 7YZ       0.324500
     82 H43        -14.7530    -9.4460   -19.4630 ho         1 7YZ       0.448000
     83 O38        -12.3550   -13.9800   -19.0500 o          1 7YZ      -0.611100
@<TRIPOS>BOND
     1     1    11 ar  
     2     1    26 ar  
     3     1    27 1   
     4     2     3 1   
     5     2    20 1   
     6     2    30 1   
     7     2    40 1   
     8     3    31 1   
     9     3    36 2   
    10     4     7 1   
    11     4    18 1   
    12     4    23 1   
    13     4    41 1   
    14     5     6 1   
    15     5    23 1   
    16     5    31 1   
    17     5    42 1   
    18     6    32 1   
    19     6    83 2   
    20     7     9 1   
    21     7    43 1   
    22     7    44 1   
    23     8    10 1   
    24     8    28 1   
    25     8    32 1   
    26     8    45 1   
    27     9    15 1   
    28     9    46 1   
    29     9    47 1   
    30    10    12 1   
    31    10    48 1   
    32    10    49 1   
    33    11    19 ar  
    34    11    50 1   
    35    12    13 1   
    36    12    16 1   
    37    12    51 1   
    38    13    14 1   
    39    13    52 1   
    40    13    53 1   
    41    14    33 1   
    42    14    54 1   
    43    14    55 1   
    44    15    17 1   
    45    15    56 1   
    46    15    57 1   
    47    16    33 1   
    48    16    34 2   
    49    17    18 1   
    50    17    58 1   
    51    17    59 1   
    52    18    60 1   
    53    18    61 1   
    54    19    24 ar  
    55    19    39 1   
    56    20    21 1   
    57    20    22 1   
    58    20    62 1   
    59    21    63 1   
    60    21    64 1   
    61    21    65 1   
    62    22    66 1   
    63    22    67 1   
    64    22    68 1   
    65    23    69 1   
    66    23    70 1   
    67    24    25 ar  
    68    24    71 1   
    69    25    26 ar  
    70    25    72 1   
    71    26    73 1   
    72    27    37 1   
    73    27    74 1   
    74    27    75 1   
    75    28    38 1   
    76    28    76 1   
    77    28    77 1   
    78    29    30 1   
    79    29    35 2   
    80    29    37 1   
    81    30    78 1   
    82    31    79 1   
    83    32    80 1   
    84    33    81 1   
    85    38    82 1   
@<TRIPOS>SUBSTRUCTURE
     1 7YZ         1 TEMP              0 ****  ****    0 ROOT
