@<TRIPOS>MOLECULE
7Z1
   65    69     1     0     0
SMALL
No Charge or Current Charge


@<TRIPOS>ATOM
      1 C4           6.0630    37.0680    25.9720 ca         1 7Z1      -0.118300
      2 C5           6.2160    40.3600    23.0900 c5         1 7Z1       0.159000
      3 C7           8.9090    33.4540    28.4550 ca         1 7Z1      -0.170000
      4 C8           9.0360    32.4620    29.4480 ca         1 7Z1       0.621900
      5 C10          5.3490    37.4160    27.1380 ca         1 7Z1       0.132000
      6 C13          5.4670    36.1860    25.0420 ca         1 7Z1      -0.157000
      7 C15          8.6120    35.5380    26.5800 ca         1 7Z1       0.353000
      8 C17          5.2800    39.4210    22.3140 ca         1 7Z1      -0.089300
      9 C21          8.9680    34.2500    26.1520 ca         1 7Z1      -0.181000
     10 C22          4.1740    35.6670    25.2710 ca         1 7Z1       0.134100
     11 C24          8.5210    33.9000    31.1440 ca         1 7Z1       0.380900
     12 C26          5.3580    41.5460    23.6250 c5         1 7Z1      -0.088400
     13 C28          8.3660    34.9710    30.2490 ca         1 7Z1      -0.218000
     14 C1           7.3870    38.4890    24.3420 c          1 7Z1       0.603100
     15 N2           6.6350    39.6840    24.3360 n          1 7Z1      -0.408800
     16 C3           7.4500    37.6530    25.6790 c3         1 7Z1       0.210800
     17 N6           8.4640    36.5520    25.6390 nu         1 7Z1      -0.956200
     18 C9           8.5620    34.7490    28.8780 ca         1 7Z1       0.068000
     19 N11          8.8520    32.6510    30.7480 nb         1 7Z1      -0.771000
     20 C14          9.1170    33.2050    27.0810 ca         1 7Z1      -0.037000
     21 C16          8.4170    35.7890    27.9460 ca         1 7Z1      -0.211000
     22 C18          4.0670    36.8960    27.3720 ca         1 7Z1      -0.111000
     23 C19          6.3190    40.4670    25.5490 c5         1 7Z1       0.104000
     24 F23          5.8830    38.2660    28.0440 f          1 7Z1      -0.191000
     25 C25          3.4800    36.0250    26.4380 ca         1 7Z1      -0.114000
     26 O27          3.5470    34.8190    24.3810 os         1 7Z1      -0.356100
     27 C29          6.0840    41.8790    24.9520 c5         1 7Z1      -0.094400
     28 C30          5.4610    39.2470    20.9270 ca         1 7Z1      -0.092500
     29 C31          4.2420    38.7040    22.9560 ca         1 7Z1      -0.092500
     30 C32          4.1770    34.3820    23.1650 c3         1 7Z1       0.157600
     31 C33          3.1700    33.5010    22.4100 c3         1 7Z1      -0.094100
     32 C34          4.6280    38.3820    20.1960 ca         1 7Z1      -0.114500
     33 C35          3.4080    37.8410    22.2260 ca         1 7Z1      -0.114500
     34 C36          3.6000    37.6780    20.8450 ca         1 7Z1      -0.109000
     35 H1           7.0810    40.6940    22.5010 h1         1 7Z1       0.072700
     36 H2           6.0180    35.9240    24.1440 ha         1 7Z1       0.136000
     37 H3           9.1260    34.0540    25.0960 ha         1 7Z1       0.114000
     38 H4           8.3730    34.0470    32.2140 h4         1 7Z1       0.012100
     39 H5           5.3400    42.3910    22.9280 hc         1 7Z1       0.059200
     40 H6           4.3170    41.2660    23.8190 hc         1 7Z1       0.059200
     41 H7           8.0970    35.9540    30.6240 ha         1 7Z1       0.122000
     42 H8           7.7280    38.3550    26.4740 h1         1 7Z1       0.087700
     43 H9           8.7800    36.3070    24.6980 hn         1 7Z1       0.505000
     44 H10          9.3950    32.2150    26.7260 ha         1 7Z1       0.106000
     45 H11          8.1570    36.7860    28.2850 ha         1 7Z1       0.122000
     46 H12          3.5260    37.1750    28.2730 ha         1 7Z1       0.136000
     47 H13          5.4120    40.0820    26.0340 h1         1 7Z1       0.056200
     48 H14          7.1380    40.4720    26.2810 h1         1 7Z1       0.056200
     49 H15          9.1720    30.5760    30.0250 hn         1 7Z1       0.470000
     50 H16          9.1150    30.7930    28.3200 hn         1 7Z1       0.470000
     51 H17          2.4840    35.6270    26.6160 ha         1 7Z1       0.134000
     52 H18          7.0360    42.3910    24.7640 hc         1 7Z1       0.059200
     53 H19          5.4910    42.5200    25.6130 hc         1 7Z1       0.059200
     54 H20          6.2550    39.7840    20.4120 ha         1 7Z1       0.115000
     55 H21          4.0820    38.8110    24.0260 ha         1 7Z1       0.115000
     56 H22          5.0830    33.8010    23.3820 h1         1 7Z1       0.043200
     57 H23          4.4520    35.2380    22.5350 h1         1 7Z1       0.043200
     58 H24          3.6090    33.1420    21.4720 hc         1 7Z1       0.048033
     59 H25          2.8890    32.6310    23.0140 hc         1 7Z1       0.048033
     60 H26          2.2640    34.0700    22.1690 hc         1 7Z1       0.048033
     61 H27          4.7800    38.2570    19.1260 ha         1 7Z1       0.115000
     62 H28          2.6160    37.2950    22.7330 ha         1 7Z1       0.115000
     63 H29          2.9560    37.0080    20.2800 ha         1 7Z1       0.112000
     64 O12          7.9160    38.0840    23.3070 o          1 7Z1      -0.614100
     65 N20          9.3410    31.1780    29.2290 nv         1 7Z1      -1.058900
@<TRIPOS>BOND
     1     1     5 ar  
     2     1     6 ar  
     3     1    16 1   
     4     2     8 1   
     5     2    12 1   
     6     2    15 1   
     7     2    35 1   
     8     3     4 ar  
     9     3    18 ar  
    10     3    20 ar  
    11     4    19 ar  
    12     4    65 1   
    13     5    22 ar  
    14     5    24 1   
    15     6    10 ar  
    16     6    36 1   
    17     7     9 ar  
    18     7    17 1   
    19     7    21 ar  
    20     8    28 ar  
    21     8    29 ar  
    22     9    20 ar  
    23     9    37 1   
    24    10    25 ar  
    25    10    26 1   
    26    11    13 ar  
    27    11    19 ar  
    28    11    38 1   
    29    12    27 1   
    30    12    39 1   
    31    12    40 1   
    32    13    18 ar  
    33    13    41 1   
    34    14    15 1   
    35    14    16 1   
    36    14    64 2   
    37    15    23 1   
    38    16    17 1   
    39    16    42 1   
    40    17    43 1   
    41    18    21 ar  
    42    20    44 1   
    43    21    45 1   
    44    22    25 ar  
    45    22    46 1   
    46    23    27 1   
    47    23    47 1   
    48    23    48 1   
    49    25    51 1   
    50    26    30 1   
    51    27    52 1   
    52    27    53 1   
    53    28    32 ar  
    54    28    54 1   
    55    29    33 ar  
    56    29    55 1   
    57    30    31 1   
    58    30    56 1   
    59    30    57 1   
    60    31    58 1   
    61    31    59 1   
    62    31    60 1   
    63    32    34 ar  
    64    32    61 1   
    65    33    34 ar  
    66    33    62 1   
    67    34    63 1   
    68    49    65 1   
    69    50    65 1   
@<TRIPOS>SUBSTRUCTURE
     1 7Z1         1 TEMP              0 ****  ****    0 ROOT
