@<TRIPOS>MOLECULE
7Z1
   65    69     1     0     0
SMALL
abcg2


@<TRIPOS>ATOM
      1 C4           5.8170    36.9420    26.0110 ca         1 7Z1      -0.118300
      2 C5           6.3360    40.0910    23.1430 c5         1 7Z1       0.159000
      3 C7           9.2180    33.5660    28.5770 ca         1 7Z1      -0.170000
      4 C8           9.5550    32.6450    29.6230 ca         1 7Z1       0.621900
      5 C10          5.0900    37.3190    27.1240 ca         1 7Z1       0.132000
      6 C13          5.1950    36.1160    25.0700 ca         1 7Z1      -0.157000
      7 C15          8.4880    35.4670    26.6070 ca         1 7Z1       0.353000
      8 C17          5.3720    39.3120    22.2780 ca         1 7Z1      -0.089300
      9 C21          9.2250    34.2970    26.2670 ca         1 7Z1      -0.181000
     10 C22          3.8760    35.7120    25.2400 ca         1 7Z1       0.134100
     11 C24          8.5260    33.9690    31.2000 ca         1 7Z1       0.380900
     12 C26          5.7780    41.4550    23.6000 c5         1 7Z1      -0.088400
     13 C28          8.1390    34.9130    30.2930 ca         1 7Z1      -0.218000
     14 C1           7.2110    38.1970    24.4180 c          1 7Z1       0.603100
     15 N2           6.6290    39.4030    24.4190 n          1 7Z1      -0.408800
     16 C3           7.2420    37.4280    25.7510 c3         1 7Z1       0.210800
     17 N6           8.2010    36.3620    25.6110 nu         1 7Z1      -0.956200
     18 C9           8.4830    34.7320    28.9270 ca         1 7Z1       0.068000
     19 N11          9.2190    32.8440    30.8900 nb         1 7Z1      -0.771000
     20 C14          9.5770    33.3840    27.2210 ca         1 7Z1      -0.037000
     21 C16          8.1260    35.6630    27.9320 ca         1 7Z1      -0.211000
     22 C18          3.7800    36.9160    27.3260 ca         1 7Z1      -0.111000
     23 C19          6.2680    40.2220    25.5830 c5         1 7Z1       0.104000
     24 F23          5.6720    38.1090    28.0700 f          1 7Z1      -0.191000
     25 C25          3.1690    36.1140    26.3790 ca         1 7Z1      -0.114000
     26 O27          3.1920    34.9480    24.3480 os         1 7Z1      -0.356100
     27 C29          6.3230    41.6370    25.0170 c5         1 7Z1      -0.094400
     28 C30          5.5660    39.2330    20.9020 ca         1 7Z1      -0.092500
     29 C31          4.2560    38.6900    22.8400 ca         1 7Z1      -0.092500
     30 C32          3.8620    34.5370    23.1450 c3         1 7Z1       0.157600
     31 C33          2.8540    33.8220    22.2770 c3         1 7Z1      -0.094100
     32 C34          4.6620    38.5460    20.0960 ca         1 7Z1      -0.114500
     33 C35          3.3560    37.9970    22.0410 ca         1 7Z1      -0.114500
     34 C36          3.5550    37.9220    20.6650 ca         1 7Z1      -0.109000
     35 H1           7.2720    40.2260    22.5970 h1         1 7Z1       0.072700
     36 H2           5.7550    35.8210    24.1960 ha         1 7Z1       0.136000
     37 H3           9.5070    34.1420    25.2320 ha         1 7Z1       0.114000
     38 H4           8.2780    34.0850    32.2500 h4         1 7Z1       0.012100
     39 H5           6.0680    42.2490    22.9150 hc         1 7Z1       0.059200
     40 H6           4.6880    41.4100    23.6240 hc         1 7Z1       0.059200
     41 H7           7.5800    35.7870    30.6030 ha         1 7Z1       0.122000
     42 H8           7.5450    38.0920    26.5580 h1         1 7Z1       0.087700
     43 H9           8.3510    36.0730    24.6540 hn         1 7Z1       0.505000
     44 H10         10.1460    32.5160    26.9140 ha         1 7Z1       0.106000
     45 H11          7.5740    36.5420    28.2330 ha         1 7Z1       0.122000
     46 H12          3.2520    37.2340    28.2160 ha         1 7Z1       0.136000
     47 H13          5.2600    39.9750    25.9260 h1         1 7Z1       0.056200
     48 H14          6.9630    40.0640    26.4040 h1         1 7Z1       0.056200
     49 H15         10.3060    30.8310    30.0900 hn         1 7Z1       0.470000
     50 H16         10.2770    31.1380    28.4240 hn         1 7Z1       0.470000
     51 H17          2.1430    35.7950    26.5050 ha         1 7Z1       0.134000
     52 H18          7.3590    41.9830    24.9900 hc         1 7Z1       0.059200
     53 H19          5.7390    42.3400    25.6100 hc         1 7Z1       0.059200
     54 H20          6.4360    39.7030    20.4590 ha         1 7Z1       0.115000
     55 H21          4.0990    38.7320    23.9100 ha         1 7Z1       0.115000
     56 H22          4.6990    33.8820    23.4070 h1         1 7Z1       0.043200
     57 H23          4.2580    35.4170    22.6350 h1         1 7Z1       0.043200
     58 H24          3.3370    33.4890    21.3570 hc         1 7Z1       0.048033
     59 H25          2.4460    32.9480    22.7890 hc         1 7Z1       0.048033
     60 H26          2.0320    34.4890    22.0120 hc         1 7Z1       0.048033
     61 H27          4.8280    38.4900    19.0280 ha         1 7Z1       0.115000
     62 H28          2.5040    37.5060    22.4930 ha         1 7Z1       0.115000
     63 H29          2.8570    37.3780    20.0420 ha         1 7Z1       0.112000
     64 O12          7.6250    37.6580    23.3890 o          1 7Z1      -0.614100
     65 N20         10.2960    31.5210    29.3540 nv         1 7Z1      -1.058900
@<TRIPOS>BOND
     1     1     5 ar  
     2     1     6 ar  
     3     1    16 1   
     4     2     8 1   
     5     2    12 1   
     6     2    15 1   
     7     2    35 1   
     8     3     4 ar  
     9     3    18 ar  
    10     3    20 ar  
    11     4    19 ar  
    12     4    65 1   
    13     5    22 ar  
    14     5    24 1   
    15     6    10 ar  
    16     6    36 1   
    17     7     9 ar  
    18     7    17 1   
    19     7    21 ar  
    20     8    28 ar  
    21     8    29 ar  
    22     9    20 ar  
    23     9    37 1   
    24    10    25 ar  
    25    10    26 1   
    26    11    13 ar  
    27    11    19 ar  
    28    11    38 1   
    29    12    27 1   
    30    12    39 1   
    31    12    40 1   
    32    13    18 ar  
    33    13    41 1   
    34    14    15 1   
    35    14    16 1   
    36    14    64 2   
    37    15    23 1   
    38    16    17 1   
    39    16    42 1   
    40    17    43 1   
    41    18    21 ar  
    42    20    44 1   
    43    21    45 1   
    44    22    25 ar  
    45    22    46 1   
    46    23    27 1   
    47    23    47 1   
    48    23    48 1   
    49    25    51 1   
    50    26    30 1   
    51    27    52 1   
    52    27    53 1   
    53    28    32 ar  
    54    28    54 1   
    55    29    33 ar  
    56    29    55 1   
    57    30    31 1   
    58    30    56 1   
    59    30    57 1   
    60    31    58 1   
    61    31    59 1   
    62    31    60 1   
    63    32    34 ar  
    64    32    61 1   
    65    33    34 ar  
    66    33    62 1   
    67    34    63 1   
    68    49    65 1   
    69    50    65 1   
@<TRIPOS>SUBSTRUCTURE
     1 7Z1         1 TEMP              0 ****  ****    0 ROOT
