@<TRIPOS>MOLECULE
7Z2
   71    76     1     0     0
SMALL
No Charge or Current Charge


@<TRIPOS>ATOM
      1 C4          34.7440    -8.1090    13.1490 ca         1 7Z2      -0.069300
      2 C5          33.8720    -7.9040    14.1950 ca         1 7Z2      -0.154300
      3 C6          34.4970    -7.1220    15.3150 c5         1 7Z2       0.175300
      4 C7          32.5630    -8.4090    14.1310 ca         1 7Z2       0.358900
      5 C10         34.3060    -8.8260    12.0260 ca         1 7Z2      -0.141000
      6 N12         38.0770    -6.0700    14.8310 ns         1 7Z2      -0.161000
      7 C13         39.2950    -5.4350    15.1970 ca         1 7Z2       0.014000
      8 C15         40.6960    -4.0680    16.6640 ca         1 7Z2      -0.053500
      9 C17         43.1180    -3.5570    16.0930 ce         1 7Z2       0.407900
     10 C20         45.2630    -2.1200    19.0690 ca         1 7Z2      -0.047300
     11 C21         44.9700    -0.7390    19.2750 ca         1 7Z2      -0.057000
     12 C22         45.2790    -0.1220    20.5230 ca         1 7Z2       0.265000
     13 C24         46.1610    -2.2500    21.3390 ca         1 7Z2      -0.104000
     14 C28         44.1200     1.4170    18.5470 ca         1 7Z2      -0.164000
     15 C3          36.0950    -7.4970    13.4000 c5         1 7Z2       0.153300
     16 C9          32.9800    -9.3050    12.0240 ca         1 7Z2       0.338900
     17 N8          32.1160    -9.1050    13.0550 nb         1 7Z2      -0.656000
     18 N2          35.8720    -6.9010    14.7600 n          1 7Z2      -0.445800
     19 C1          36.8520    -6.1910    15.4740 c          1 7Z2       0.671100
     20 O11         36.6050    -5.7310    16.5810 o          1 7Z2      -0.623100
     21 C40         40.3880    -5.5740    14.3250 ca         1 7Z2      -0.162000
     22 C39         41.6250    -4.9740    14.6160 ca         1 7Z2      -0.053500
     23 C14         39.4600    -4.6690    16.3690 ca         1 7Z2      -0.162000
     24 C16         41.8030    -4.2250    15.8000 ca         1 7Z2      -0.162900
     25 C18         43.4270    -3.1010    17.5250 c6         1 7Z2      -0.144700
     26 N33         44.0090    -3.4330    15.1550 n2         1 7Z2      -0.453300
     27 N32         45.0550    -2.5270    15.2560 n          1 7Z2      -0.185800
     28 C34         45.6050    -1.8810    14.0420 c3         1 7Z2       0.120000
     29 C35         44.9730    -0.5000    13.7350 c3         1 7Z2      -0.094400
     30 C36         43.4350    -0.4940    13.5380 c3         1 7Z2      -0.071400
     31 C37         42.9480    -1.3620    12.3570 c3         1 7Z2       0.149800
     32 N38         41.4890    -1.2540    12.1720 n8         1 7Z2      -1.002200
     33 C30         45.6660    -2.2770    16.5180 c          1 7Z2       0.547000
     34 O31         46.6850    -1.6050    16.6300 o          1 7Z2      -0.528000
     35 C19         44.9530    -2.8760    17.7580 c6         1 7Z2      -0.098400
     36 C29         44.3780     0.0660    18.2720 ca         1 7Z2      -0.057000
     37 C27         44.4560     1.9350    19.8030 ca         1 7Z2       0.350900
     38 N26         45.0230     1.1850    20.7720 nb         1 7Z2      -0.661000
     39 C23         45.8720    -0.8940    21.5370 ca         1 7Z2      -0.073000
     40 C25         45.8570    -2.8570    20.1140 ca         1 7Z2      -0.095000
     41 H1          34.5210    -7.6990    16.2490 h1         1 7Z2       0.073200
     42 H2          33.9700    -6.1740    15.4910 h1         1 7Z2       0.073200
     43 H3          31.8590    -8.2560    14.9490 h4         1 7Z2       0.028100
     44 H4          34.9620    -9.0100    11.1800 ha         1 7Z2       0.128000
     45 H5          38.1120    -6.5200    13.9270 hn         1 7Z2       0.148000
     46 H6          40.7760    -3.4720    17.5710 ha         1 7Z2       0.123500
     47 H7          46.6190    -2.8310    22.1360 ha         1 7Z2       0.119000
     48 H8          43.6670     2.0600    17.7980 ha         1 7Z2       0.125000
     49 H9          36.8840    -8.2600    13.4090 h1         1 7Z2       0.058200
     50 H10         36.3320    -6.7320    12.6490 h1         1 7Z2       0.058200
     51 H11         32.5980    -9.8670    11.1730 h4         1 7Z2       0.025100
     52 H12         40.2820    -6.1520    13.4090 ha         1 7Z2       0.132500
     53 H13         42.4470    -5.1050    13.9140 ha         1 7Z2       0.123500
     54 H14         38.6410    -4.5180    17.0640 ha         1 7Z2       0.132500
     55 H15         42.8700    -2.1760    17.7150 hc         1 7Z2       0.074200
     56 H16         43.0510    -3.8400    18.2450 hc         1 7Z2       0.074200
     57 H17         45.4410    -2.5500    13.1880 h1         1 7Z2       0.065200
     58 H18         46.6920    -1.7660    14.1450 h1         1 7Z2       0.065200
     59 H19         45.4480    -0.0930    12.8340 hc         1 7Z2       0.050700
     60 H20         45.2240     0.1870    14.5520 hc         1 7Z2       0.050700
     61 H21         43.1150     0.5420    13.3720 hc         1 7Z2       0.046700
     62 H22         42.9470    -0.8250    14.4630 hc         1 7Z2       0.046700
     63 H23         43.2000    -2.4160    12.5350 h1         1 7Z2       0.029200
     64 H24         43.4440    -1.0360    11.4320 h1         1 7Z2       0.029200
     65 H25         41.2020    -1.8840    11.4140 hn         1 7Z2       0.391000
     66 H26         41.0230    -1.6450    12.9990 hn         1 7Z2       0.391000
     67 H28         45.3700    -3.8920    17.8060 hc         1 7Z2       0.080700
     68 H29         44.1160    -0.3210    17.2930 ha         1 7Z2       0.118000
     69 H30         44.2670     2.9810    20.0430 h4         1 7Z2       0.020100
     70 H31         46.1100    -0.4300    22.4910 ha         1 7Z2       0.133000
     71 H32         46.0850    -3.9120    19.9800 ha         1 7Z2       0.113000
@<TRIPOS>BOND
     1     1     2 ar  
     2     1     5 ar  
     3     1    15 1   
     4     2     3 1   
     5     2     4 ar  
     6     3    18 1   
     7     3    41 1   
     8     3    42 1   
     9     4    17 ar  
    10     4    43 1   
    11     5    16 ar  
    12     5    44 1   
    13     6     7 1   
    14     6    19 1   
    15     6    45 1   
    16     7    21 ar  
    17     7    23 ar  
    18     8    23 ar  
    19     8    24 ar  
    20     8    46 1   
    21     9    24 1   
    22     9    25 1   
    23     9    26 2   
    24    10    11 ar  
    25    10    35 1   
    26    10    40 ar  
    27    11    12 ar  
    28    11    36 ar  
    29    12    38 ar  
    30    12    39 ar  
    31    13    39 ar  
    32    13    40 ar  
    33    13    47 1   
    34    14    36 ar  
    35    14    37 ar  
    36    14    48 1   
    37    15    18 1   
    38    15    49 1   
    39    15    50 1   
    40    16    17 ar  
    41    16    51 1   
    42    18    19 1   
    43    19    20 2   
    44    21    22 ar  
    45    21    52 1   
    46    22    24 ar  
    47    22    53 1   
    48    23    54 1   
    49    25    35 1   
    50    25    55 1   
    51    25    56 1   
    52    26    27 1   
    53    27    28 1   
    54    27    33 1   
    55    28    29 1   
    56    28    57 1   
    57    28    58 1   
    58    29    30 1   
    59    29    59 1   
    60    29    60 1   
    61    30    31 1   
    62    30    61 1   
    63    30    62 1   
    64    31    32 1   
    65    31    63 1   
    66    31    64 1   
    67    32    65 1   
    68    32    66 1   
    69    33    34 2   
    70    33    35 1   
    71    35    67 1   
    72    36    68 1   
    73    37    38 ar  
    74    37    69 1   
    75    39    70 1   
    76    40    71 1   
@<TRIPOS>SUBSTRUCTURE
     1 7Z2         1 TEMP              0 ****  ****    0 ROOT
