@<TRIPOS>MOLECULE
7Z2
   71    76     1     0     0
SMALL
abcg2


@<TRIPOS>ATOM
      1 C4          34.6720    -8.0570    13.2210 ca         1 7Z2      -0.069300
      2 C5          34.0410    -8.1820    14.4520 ca         1 7Z2      -0.154300
      3 C6          34.8430    -7.5340    15.5390 c5         1 7Z2       0.175300
      4 C7          32.8290    -8.8490    14.5250 ca         1 7Z2       0.358900
      5 C10         34.0760    -8.5950    12.0920 ca         1 7Z2      -0.141000
      6 N12         38.1020    -6.0620    14.6980 ns         1 7Z2      -0.161000
      7 C13         39.2540    -5.3750    15.0850 ca         1 7Z2       0.014000
      8 C15         40.5930    -4.0590    16.5990 ca         1 7Z2      -0.053500
      9 C17         42.9110    -3.3170    16.0170 ce         1 7Z2       0.407900
     10 C20         44.9800    -2.1410    19.0390 ca         1 7Z2      -0.047300
     11 C21         44.8510    -0.7390    19.2760 ca         1 7Z2      -0.057000
     12 C22         45.1310    -0.2260    20.5810 ca         1 7Z2       0.265000
     13 C24         45.6660    -2.4470    21.3540 ca         1 7Z2      -0.104000
     14 C28         44.3690     1.5300    18.6180 ca         1 7Z2      -0.164000
     15 C3          35.9700    -7.3230    13.3630 c5         1 7Z2       0.153300
     16 C9          32.8580    -9.2440    12.2640 ca         1 7Z2       0.338900
     17 N8          32.2410    -9.3760    13.4450 nb         1 7Z2      -0.656000
     18 N2          36.0250    -7.0580    14.8080 n          1 7Z2      -0.445800
     19 C1          37.0190    -6.4200    15.4760 c          1 7Z2       0.671100
     20 O11         36.9440    -6.1930    16.6860 o          1 7Z2      -0.623100
     21 C40         40.3180    -5.3430    14.1680 ca         1 7Z2      -0.162000
     22 C39         41.4910    -4.6840    14.4670 ca         1 7Z2      -0.053500
     23 C14         39.4030    -4.7130    16.3050 ca         1 7Z2      -0.162000
     24 C16         41.6630    -4.0300    15.6990 ca         1 7Z2      -0.162900
     25 C18         43.1450    -2.7440    17.3860 c6         1 7Z2      -0.144700
     26 N33         43.7720    -3.1710    15.0750 n2         1 7Z2      -0.453300
     27 N32         44.9400    -2.4720    15.3190 n          1 7Z2      -0.185800
     28 C34         45.6630    -2.0800    14.1090 c3         1 7Z2       0.120000
     29 C35         45.2880    -0.6770    13.6230 c3         1 7Z2      -0.094400
     30 C36         43.7980    -0.4580    13.3520 c3         1 7Z2      -0.071400
     31 C37         43.2450    -1.2920    12.2050 c3         1 7Z2       0.149800
     32 N38         41.7960    -1.0800    12.0650 n8         1 7Z2      -1.002200
     33 C30         45.4680    -2.2360    16.5510 c          1 7Z2       0.547000
     34 O31         46.5500    -1.6760    16.7000 o          1 7Z2      -0.528000
     35 C19         44.6430    -2.7720    17.7090 c6         1 7Z2      -0.098400
     36 C29         44.4710     0.2040    18.2910 ca         1 7Z2      -0.057000
     37 C27         44.6540     1.9310    19.9390 ca         1 7Z2       0.350900
     38 N26         45.0250     1.1000    20.8860 nb         1 7Z2      -0.661000
     39 C23         45.5390    -1.1090    21.6080 ca         1 7Z2      -0.073000
     40 C25         45.3840    -2.9560    20.0690 ca         1 7Z2      -0.095000
     41 H1          35.1260    -8.2360    16.3270 h1         1 7Z2       0.073200
     42 H2          34.3100    -6.7040    16.0110 h1         1 7Z2       0.073200
     43 H3          32.3100    -8.9660    15.4700 h4         1 7Z2       0.028100
     44 H4          34.5290    -8.5230    11.1120 ha         1 7Z2       0.128000
     45 H5          38.1080    -6.3820    13.7430 hn         1 7Z2       0.148000
     46 H6          40.6680    -3.5560    17.5520 ha         1 7Z2       0.123500
     47 H7          45.9810    -3.1250    22.1370 ha         1 7Z2       0.119000
     48 H8          44.0780     2.2680    17.8820 ha         1 7Z2       0.125000
     49 H9          36.8110    -7.9420    13.0310 h1         1 7Z2       0.058200
     50 H10         35.9800    -6.3950    12.7820 h1         1 7Z2       0.058200
     51 H11         32.3540    -9.6830    11.4090 h4         1 7Z2       0.025100
     52 H12         40.2130    -5.8510    13.2160 ha         1 7Z2       0.132500
     53 H13         42.2980    -4.6770    13.7480 ha         1 7Z2       0.123500
     54 H14         38.5970    -4.7160    17.0190 ha         1 7Z2       0.132500
     55 H15         42.7540    -1.7230    17.4080 hc         1 7Z2       0.074200
     56 H16         42.6100    -3.3040    18.1480 hc         1 7Z2       0.074200
     57 H17         45.4410    -2.8340    13.3580 h1         1 7Z2       0.065200
     58 H18         46.7270    -2.1160    14.3360 h1         1 7Z2       0.065200
     59 H19         45.8640    -0.4820    12.7130 hc         1 7Z2       0.050700
     60 H20         45.6250     0.0490    14.3670 hc         1 7Z2       0.050700
     61 H21         43.6300     0.5990    13.1300 hc         1 7Z2       0.046700
     62 H22         43.2270    -0.6800    14.2600 hc         1 7Z2       0.046700
     63 H23         43.4940    -2.3470    12.3630 h1         1 7Z2       0.029200
     64 H24         43.7240    -0.9870    11.2700 h1         1 7Z2       0.029200
     65 H25         41.4450    -1.6240    11.2830 hn         1 7Z2       0.391000
     66 H26         41.3250    -1.4460    12.8880 hn         1 7Z2       0.391000
     67 H28         44.9300    -3.8280    17.7740 hc         1 7Z2       0.080700
     68 H29         44.2680    -0.1050    17.2770 ha         1 7Z2       0.118000
     69 H30         44.5750     2.9790    20.2120 h4         1 7Z2       0.020100
     70 H31         45.7450    -0.6940    22.5870 ha         1 7Z2       0.133000
     71 H32         45.4860    -4.0200    19.8920 ha         1 7Z2       0.113000
@<TRIPOS>BOND
     1     1     2 ar  
     2     1     5 ar  
     3     1    15 1   
     4     2     3 1   
     5     2     4 ar  
     6     3    18 1   
     7     3    41 1   
     8     3    42 1   
     9     4    17 ar  
    10     4    43 1   
    11     5    16 ar  
    12     5    44 1   
    13     6     7 1   
    14     6    19 1   
    15     6    45 1   
    16     7    21 ar  
    17     7    23 ar  
    18     8    23 ar  
    19     8    24 ar  
    20     8    46 1   
    21     9    24 1   
    22     9    25 1   
    23     9    26 2   
    24    10    11 ar  
    25    10    35 1   
    26    10    40 ar  
    27    11    12 ar  
    28    11    36 ar  
    29    12    38 ar  
    30    12    39 ar  
    31    13    39 ar  
    32    13    40 ar  
    33    13    47 1   
    34    14    36 ar  
    35    14    37 ar  
    36    14    48 1   
    37    15    18 1   
    38    15    49 1   
    39    15    50 1   
    40    16    17 ar  
    41    16    51 1   
    42    18    19 1   
    43    19    20 2   
    44    21    22 ar  
    45    21    52 1   
    46    22    24 ar  
    47    22    53 1   
    48    23    54 1   
    49    25    35 1   
    50    25    55 1   
    51    25    56 1   
    52    26    27 1   
    53    27    28 1   
    54    27    33 1   
    55    28    29 1   
    56    28    57 1   
    57    28    58 1   
    58    29    30 1   
    59    29    59 1   
    60    29    60 1   
    61    30    31 1   
    62    30    61 1   
    63    30    62 1   
    64    31    32 1   
    65    31    63 1   
    66    31    64 1   
    67    32    65 1   
    68    32    66 1   
    69    33    34 2   
    70    33    35 1   
    71    35    67 1   
    72    36    68 1   
    73    37    38 ar  
    74    37    69 1   
    75    39    70 1   
    76    40    71 1   
@<TRIPOS>SUBSTRUCTURE
     1 7Z2         1 TEMP              0 ****  ****    0 ROOT
