@<TRIPOS>MOLECULE
7Z3
   29    30     1     0     0
SMALL
No Charge or Current Charge


@<TRIPOS>ATOM
      1 C1          -3.3170     1.1110    -0.3610 c3         1 7Z3       0.194100
      2 N1          -3.7730     1.6380     0.9400 n8         1 7Z3      -1.000200
      3 C2          -2.1900     0.0950    -0.2000 ca         1 7Z3      -0.040300
      4 N2           1.5540     0.0410     0.0800 nh         1 7Z3      -0.846400
      5 C3          -2.4770    -1.2800    -0.1220 ca         1 7Z3      -0.177000
      6 C4          -1.4380    -2.2110     0.0230 ca         1 7Z3      -0.064000
      7 C5          -0.1060    -1.7720     0.0900 ca         1 7Z3      -0.202000
      8 C6           0.2060    -0.3990     0.0130 ca         1 7Z3       0.352000
      9 C7           2.6880    -0.8160     0.5210 c5         1 7Z3       0.231300
     10 C8           3.8020     0.2330     0.7610 c5         1 7Z3      -0.094400
     11 C9           3.5340     1.2270    -0.3970 c5         1 7Z3      -0.094400
     12 C10          2.0000     1.4130    -0.2850 c5         1 7Z3       0.231300
     13 C11         -0.8500     0.5240    -0.1320 ca         1 7Z3      -0.178000
     14 H11C        -4.1700     0.6390    -0.8690 h1         1 7Z3       0.033700
     15 H12C        -2.9750     1.9500    -0.9830 h1         1 7Z3       0.033700
     16 H11N        -4.5920     2.2390     0.7860 hn         1 7Z3       0.395000
     17 H12N        -4.1430     0.8580     1.4950 hn         1 7Z3       0.395000
     18 H3          -3.5070    -1.6270    -0.1730 ha         1 7Z3       0.106000
     19 H11         -0.6390     1.5870    -0.1840 ha         1 7Z3       0.129000
     20 H71C         2.4630    -1.3770     1.4390 h1         1 7Z3       0.042950
     21 H72C         2.9740    -1.5290    -0.2660 h1         1 7Z3       0.042950
     22 H101         1.5700     1.7610    -1.2350 h1         1 7Z3       0.042950
     23 H102         1.7420     2.1350     0.5040 h1         1 7Z3       0.042950
     24 H4          -1.6650    -3.2740     0.0820 ha         1 7Z3       0.104000
     25 H5           0.6810    -2.5120     0.1940 ha         1 7Z3       0.108000
     26 H81C         3.6890     0.7170     1.7380 hc         1 7Z3       0.052450
     27 H82C         4.8050    -0.2070     0.7230 hc         1 7Z3       0.052450
     28 H91C         4.0780     2.1710    -0.2840 hc         1 7Z3       0.052450
     29 H92C         3.8140     0.7970    -1.3660 hc         1 7Z3       0.052450
@<TRIPOS>BOND
     1     1     2 1   
     2     1     3 1   
     3     1    14 1   
     4     1    15 1   
     5     2    16 1   
     6     2    17 1   
     7     3     5 ar  
     8     3    13 ar  
     9     4     8 1   
    10     4     9 1   
    11     4    12 1   
    12     5     6 ar  
    13     5    18 1   
    14     6     7 ar  
    15     6    24 1   
    16     7     8 ar  
    17     7    25 1   
    18     8    13 ar  
    19     9    10 1   
    20     9    20 1   
    21     9    21 1   
    22    10    11 1   
    23    10    26 1   
    24    10    27 1   
    25    11    12 1   
    26    11    28 1   
    27    11    29 1   
    28    12    22 1   
    29    12    23 1   
    30    13    19 1   
@<TRIPOS>SUBSTRUCTURE
     1 7Z3         1 TEMP              0 ****  ****    0 ROOT
