@<TRIPOS>MOLECULE
7Z3
   29    30     1     0     0
SMALL
bcc


@<TRIPOS>ATOM
      1 C1          -3.3770     0.8710    -0.2620 c3         1 7Z3       0.194100
      2 N1          -3.1000     2.1810     0.2980 n8         1 7Z3      -0.889800
      3 C2          -2.2080    -0.0790    -0.1480 ca         1 7Z3      -0.040300
      4 N2           1.4630     0.0050     0.0990 nh         1 7Z3      -0.708000
      5 C3          -2.4410    -1.4540    -0.1560 ca         1 7Z3      -0.195000
      6 C4          -1.3640    -2.3260    -0.0960 ca         1 7Z3      -0.082000
      7 C5          -0.0620    -1.8590    -0.0170 ca         1 7Z3      -0.220000
      8 C6           0.1940    -0.4760     0.0070 ca         1 7Z3       0.213600
      9 C7           2.6300    -0.8340     0.2890 c5         1 7Z3       0.231300
     10 C8           3.7160     0.1570     0.6930 c5         1 7Z3      -0.094400
     11 C9           3.3140     1.4290    -0.0480 c5         1 7Z3      -0.094400
     12 C10          1.7910     1.4170     0.0300 c5         1 7Z3       0.231300
     13 C11         -0.9080     0.3980    -0.0660 ca         1 7Z3      -0.196000
     14 H11C        -4.2610     0.3820     0.1700 h1         1 7Z3       0.033700
     15 H12C        -3.6060     1.0060    -1.3240 h1         1 7Z3       0.033700
     16 H11N        -3.8690     2.8040     0.0860 hn         1 7Z3       0.339800
     17 H12N        -3.0610     2.1180     1.3080 hn         1 7Z3       0.339800
     18 H3          -3.4540    -1.8360    -0.2080 ha         1 7Z3       0.124000
     19 H11         -0.7600     1.4690    -0.0450 ha         1 7Z3       0.147000
     20 H71C         2.4580    -1.5900     1.0610 h1         1 7Z3       0.042950
     21 H72C         2.9000    -1.3660    -0.6320 h1         1 7Z3       0.042950
     22 H101         1.3360     1.8920    -0.8440 h1         1 7Z3       0.042950
     23 H102         1.4300     1.9560     0.9160 h1         1 7Z3       0.042950
     24 H4          -1.5360    -3.3950    -0.1050 ha         1 7Z3       0.122000
     25 H5           0.7520    -2.5710     0.0230 ha         1 7Z3       0.126000
     26 H81C         3.6870     0.3220     1.7720 hc         1 7Z3       0.052450
     27 H82C         4.7140    -0.1950     0.4360 hc         1 7Z3       0.052450
     28 H91C         3.7420     2.3320     0.3850 hc         1 7Z3       0.052450
     29 H92C         3.6360     1.3750    -1.0900 hc         1 7Z3       0.052450
@<TRIPOS>BOND
     1     1     2 1   
     2     1     3 1   
     3     1    14 1   
     4     1    15 1   
     5     2    16 1   
     6     2    17 1   
     7     3     5 ar  
     8     3    13 ar  
     9     4     8 1   
    10     4     9 1   
    11     4    12 1   
    12     5     6 ar  
    13     5    18 1   
    14     6     7 ar  
    15     6    24 1   
    16     7     8 ar  
    17     7    25 1   
    18     8    13 ar  
    19     9    10 1   
    20     9    20 1   
    21     9    21 1   
    22    10    11 1   
    23    10    26 1   
    24    10    27 1   
    25    11    12 1   
    26    11    28 1   
    27    11    29 1   
    28    12    22 1   
    29    12    23 1   
    30    13    19 1   
@<TRIPOS>SUBSTRUCTURE
     1 7Z3         1 TEMP              0 ****  ****    0 ROOT
