@<TRIPOS>MOLECULE
7Z5
   41    42     1     0     0
SMALL
abcg2


@<TRIPOS>ATOM
      1 CAA         -1.3730     1.1450    -0.2000 ca         1 7Z5      -0.161600
      2 CAB         -1.6980    -0.1740     0.1780 ca         1 7Z5      -0.033000
      3 CAC         -0.1010     1.6370     0.0710 ca         1 7Z5      -0.127000
      4 CAD         -2.3480     2.0830    -0.9130 c          1 7Z5       0.721600
      5 CAE         -0.7150    -0.9400     0.8060 ca         1 7Z5      -0.137000
      6 NAF         -2.9830    -0.6450    -0.1080 ns         1 7Z5      -0.155000
      7 CAG          0.8880     0.8820     0.7100 ca         1 7Z5       0.255000
      8 OAH         -3.4870     1.6290    -1.2040 o          1 7Z5      -0.712000
      9 OAI         -1.9560     3.2310    -1.1640 o          1 7Z5      -0.712000
     10 CAJ          0.5450    -0.4300     1.0610 ca         1 7Z5      -0.165000
     11 CAK         -3.5590    -1.8250     0.1890 c          1 7Z5       0.600100
     12 NAL          2.1330     1.4120     0.9870 nh         1 7Z5      -0.844400
     13 CAM         -4.9630    -1.9750    -0.3680 c3         1 7Z5      -0.160400
     14 OAN         -3.0250    -2.7290     0.8200 o          1 7Z5      -0.655100
     15 CAO          3.1870     0.5530     1.4550 c3         1 7Z5       0.291100
     16 CAP          2.4630     2.7400     0.5270 c3         1 7Z5       0.228100
     17 CAQ         -5.8730    -2.8000     0.5280 c3         1 7Z5      -0.074100
     18 CAR          3.6990    -0.4450     0.4390 ca         1 7Z5      -0.150300
     19 CAS          3.5770    -0.2490    -0.9300 ca         1 7Z5      -0.051000
     20 CAT          4.3400    -1.6050     0.8610 ca         1 7Z5       0.328900
     21 CAU          4.1000    -1.1950    -1.7980 ca         1 7Z5      -0.163000
     22 NAV          4.8490    -2.5160     0.0410 nb         1 7Z5      -0.677000
     23 CAW          4.7310    -2.3090    -1.2660 ca         1 7Z5       0.320900
     24 HAC          0.1020     2.6500    -0.2420 ha         1 7Z5       0.131000
     25 HAE         -0.9260    -1.9530     1.1040 ha         1 7Z5       0.130000
     26 HNAF        -3.5150     0.0790    -0.6170 hn         1 7Z5       0.227000
     27 HAJ          1.2570    -1.0840     1.5450 ha         1 7Z5       0.091000
     28 HAM         -5.4070    -0.9970    -0.5640 hc         1 7Z5       0.058700
     29 HAMA        -4.8690    -2.4630    -1.3450 hc         1 7Z5       0.058700
     30 HAO          4.0170     1.1860     1.7740 h1         1 7Z5       0.046700
     31 HAOA         2.8750     0.0180     2.3580 h1         1 7Z5       0.046700
     32 HAP          1.7910     3.4900     0.9510 h1         1 7Z5       0.026700
     33 HAPA         3.4710     2.9880     0.8500 h1         1 7Z5       0.026700
     34 HAPB         2.4270     2.8420    -0.5630 h1         1 7Z5       0.026700
     35 HAQ         -6.0430    -2.3070     1.4860 hc         1 7Z5       0.030033
     36 HAQA        -6.8430    -2.9410     0.0520 hc         1 7Z5       0.030033
     37 HAQB        -5.4530    -3.7840     0.7270 hc         1 7Z5       0.030033
     38 HAS          3.0770     0.6280    -1.3220 ha         1 7Z5       0.134000
     39 HAT          4.4420    -1.8060     1.9230 h4         1 7Z5       0.009100
     40 HAU          4.0210    -1.0720    -2.8700 ha         1 7Z5       0.119000
     41 HAW          5.1510    -3.0660    -1.9190 h4         1 7Z5       0.008100
@<TRIPOS>BOND
     1     1     2 ar  
     2     1     3 ar  
     3     1     4 1   
     4     2     5 ar  
     5     2     6 1   
     6     3     7 ar  
     7     3    24 1   
     8     4     8 1   
     9     4     9 1   
    10     5    10 ar  
    11     5    25 1   
    12     6    11 1   
    13     6    26 1   
    14     7    10 ar  
    15     7    12 1   
    16    10    27 1   
    17    11    13 1   
    18    11    14 2   
    19    12    15 1   
    20    12    16 1   
    21    13    17 1   
    22    13    28 1   
    23    13    29 1   
    24    15    18 1   
    25    15    30 1   
    26    15    31 1   
    27    16    32 1   
    28    16    33 1   
    29    16    34 1   
    30    17    35 1   
    31    17    36 1   
    32    17    37 1   
    33    18    19 ar  
    34    18    20 ar  
    35    19    21 ar  
    36    19    38 1   
    37    20    22 ar  
    38    20    39 1   
    39    21    23 ar  
    40    21    40 1   
    41    22    23 ar  
    42    23    41 1   
@<TRIPOS>SUBSTRUCTURE
     1 7Z5         1 TEMP              0 ****  ****    0 ROOT
