@<TRIPOS>MOLECULE
7Z5
   41    42     1     0     0
SMALL
No Charge or Current Charge


@<TRIPOS>ATOM
      1 CAA         -1.1810     0.9340    -0.3930 ca         1 7Z5      -0.161600
      2 CAB         -1.5460    -0.3100     0.1930 ca         1 7Z5      -0.033000
      3 CAC          0.0650     1.5140    -0.0470 ca         1 7Z5      -0.127000
      4 CAD         -2.0720     1.6580    -1.3930 c          1 7Z5       0.721600
      5 CAE         -0.6700    -0.9200     1.1170 ca         1 7Z5      -0.137000
      6 NAF         -2.7940    -0.9000    -0.1560 ns         1 7Z5      -0.155000
      7 CAG          0.9400     0.8980     0.8660 ca         1 7Z5       0.255000
      8 OAH         -3.2860     1.5650    -1.2800 o          1 7Z5      -0.712000
      9 OAI         -1.5350     2.3250    -2.2660 o          1 7Z5      -0.712000
     10 CAJ          0.5560    -0.3220     1.4470 ca         1 7Z5      -0.165000
     11 CAK         -3.3320    -2.1630     0.0410 c          1 7Z5       0.600100
     12 NAL          2.1830     1.4940     1.1990 nh         1 7Z5      -0.844400
     13 CAM         -4.7640    -2.3260    -0.4910 c3         1 7Z5      -0.160400
     14 OAN         -2.7300    -3.1030     0.5500 o          1 7Z5      -0.655100
     15 CAO          3.4070     0.6740     1.3710 c3         1 7Z5       0.291100
     16 CAP          2.3420     2.9650     1.2550 c3         1 7Z5       0.228100
     17 CAQ         -5.7960    -2.3870     0.6560 c3         1 7Z5      -0.074100
     18 CAR          3.6150    -0.3560     0.2710 ca         1 7Z5      -0.150300
     19 CAS          3.6820     0.0270    -1.0810 ca         1 7Z5      -0.051000
     20 CAT          3.7460    -1.7200     0.5930 ca         1 7Z5       0.328900
     21 CAU          3.8760    -0.9730    -2.0470 ca         1 7Z5      -0.163000
     22 NAV          3.9370    -2.6880    -0.3360 nb         1 7Z5      -0.677000
     23 CAW          3.9980    -2.3110    -1.6340 ca         1 7Z5       0.320900
     24 HAC          0.3550     2.4550    -0.5040 ha         1 7Z5       0.131000
     25 HAE         -0.9290    -1.8550     1.6040 ha         1 7Z5       0.130000
     26 HNAF        -3.4180    -0.2570    -0.6310 hn         1 7Z5       0.227000
     27 HAJ          1.2030    -0.8110     2.1690 ha         1 7Z5       0.091000
     28 HAM         -5.0250    -1.4810    -1.1390 hc         1 7Z5       0.058700
     29 HAMA        -4.8270    -3.2610    -1.0590 hc         1 7Z5       0.058700
     30 HAO          4.2940     1.3240     1.3880 h1         1 7Z5       0.046700
     31 HAOA         3.3740     0.1690     2.3460 h1         1 7Z5       0.046700
     32 HAP          1.3990     3.4430     1.5510 h1         1 7Z5       0.026700
     33 HAPA         3.1030     3.2450     1.9960 h1         1 7Z5       0.026700
     34 HAPB         2.6450     3.3560     0.2750 h1         1 7Z5       0.026700
     35 HAQ         -5.7660    -1.4680     1.2540 hc         1 7Z5       0.030033
     36 HAQA        -6.8100    -2.5020     0.2540 hc         1 7Z5       0.030033
     37 HAQB        -5.5930    -3.2370     1.3190 hc         1 7Z5       0.030033
     38 HAS          3.5800     1.0710    -1.3710 ha         1 7Z5       0.134000
     39 HAT          3.7000    -2.0550     1.6290 h4         1 7Z5       0.009100
     40 HAU          3.9310    -0.7220    -3.1030 ha         1 7Z5       0.119000
     41 HAW          4.1500    -3.1050    -2.3630 h4         1 7Z5       0.008100
@<TRIPOS>BOND
     1     1     2 ar  
     2     1     3 ar  
     3     1     4 1   
     4     2     5 ar  
     5     2     6 1   
     6     3     7 ar  
     7     3    24 1   
     8     4     8 1   
     9     4     9 1   
    10     5    10 ar  
    11     5    25 1   
    12     6    11 1   
    13     6    26 1   
    14     7    10 ar  
    15     7    12 1   
    16    10    27 1   
    17    11    13 1   
    18    11    14 2   
    19    12    15 1   
    20    12    16 1   
    21    13    17 1   
    22    13    28 1   
    23    13    29 1   
    24    15    18 1   
    25    15    30 1   
    26    15    31 1   
    27    16    32 1   
    28    16    33 1   
    29    16    34 1   
    30    17    35 1   
    31    17    36 1   
    32    17    37 1   
    33    18    19 ar  
    34    18    20 ar  
    35    19    21 ar  
    36    19    38 1   
    37    20    22 ar  
    38    20    39 1   
    39    21    23 ar  
    40    21    40 1   
    41    22    23 ar  
    42    23    41 1   
@<TRIPOS>SUBSTRUCTURE
     1 7Z5         1 TEMP              0 ****  ****    0 ROOT
