@<TRIPOS>MOLECULE
7Z6
   41    44     1     0     0
SMALL
No Charge or Current Charge


@<TRIPOS>ATOM
      1 C4           1.7730     0.7040    -0.8770 ca         1 7Z6      -0.094000
      2 C5           3.6120    -0.2850     0.4020 ca         1 7Z6      -0.113000
      3 C6          -6.0930     3.4100    -0.0730 ca         1 7Z6       0.345900
      4 C7          -5.5620     1.3840    -1.0670 ca         1 7Z6       0.354900
      5 C8          -1.4620    -3.6170     0.1430 ca         1 7Z6       0.192900
      6 C10         -4.9280     0.9190     0.1010 ca         1 7Z6      -0.175300
      7 C13         -0.0890    -3.3220     0.1030 ca         1 7Z6      -0.135000
      8 C15         -1.9270    -1.3800     0.0790 ca         1 7Z6       0.427900
      9 C17          5.7220     1.2880     0.7190 c5         1 7Z6      -0.120100
     10 C1          -5.4820     3.0280     1.1330 ca         1 7Z6      -0.167000
     11 C2          -4.8880     1.7600     1.2290 ca         1 7Z6      -0.057000
     12 C3           2.5060     1.9000    -1.0400 ca         1 7Z6      -0.120000
     13 C9           4.3270     0.9090     0.2320 ca         1 7Z6      -0.114300
     14 C11          3.7780     1.9600    -0.4660 ca         1 7Z6      -0.054000
     15 C12          2.3130    -0.3890    -0.1470 ca         1 7Z6       0.281000
     16 C14          0.2750    -1.9630     0.0380 ca         1 7Z6       0.446900
     17 C16          5.9040     2.7460     0.1850 c          1 7Z6       0.565000
     18 C18         -4.3130    -0.4650     0.1360 c3         1 7Z6       0.297100
     19 N19         -6.1380     2.6070    -1.1610 nb         1 7Z6      -0.665000
     20 N20         -2.3900    -2.6410     0.1290 nb         1 7Z6      -0.273000
     21 N21         -0.6480    -0.9880     0.0370 nb         1 7Z6      -0.326000
     22 N22          4.7130     2.9890    -0.4690 ns         1 7Z6      -0.147000
     23 N23          1.6190    -1.5950     0.0220 nu         1 7Z6      -0.927900
     24 O25          6.8490     3.5170     0.2960 o          1 7Z6      -0.527000
     25 Cl1          1.1100    -4.6210     0.1350 cl         1 7Z6      -0.190000
     26 H1           0.7940     0.6260    -1.3370 ha         1 7Z6       0.151000
     27 H2           4.0500    -1.1120     0.9540 ha         1 7Z6       0.118000
     28 H4          -5.6140     0.7590    -1.9580 h4         1 7Z6       0.024100
     29 H5          -1.8240    -4.6430     0.1890 h4         1 7Z6       0.032100
     30 H6           5.8320     1.2920     1.8080 hc         1 7Z6       0.091200
     31 H7           6.5240     0.6610     0.3170 hc         1 7Z6       0.091200
     32 H8          -5.4750     3.7110     1.9780 ha         1 7Z6       0.127000
     33 H9          -4.4090     1.4390     2.1530 ha         1 7Z6       0.124000
     34 H10          2.0980     2.7390    -1.5990 ha         1 7Z6       0.123000
     35 H11         -4.6150    -0.9740     1.0630 h1         1 7Z6       0.062200
     36 H12         -4.6880    -1.0630    -0.7070 h1         1 7Z6       0.062200
     37 H13          4.5300     3.8720    -0.9290 hn         1 7Z6       0.172000
     38 H14          2.2230    -2.3860     0.2460 hn         1 7Z6       0.510000
     39 N24         -2.8510    -0.3530     0.0690 nu         1 7Z6      -0.926100
     40 H3          -6.5610     4.3890    -0.1720 h4         1 7Z6       0.022100
     41 H15         -2.4560     0.5860     0.0550 hn         1 7Z6       0.511000
@<TRIPOS>BOND
     1     1    12 ar  
     2     1    15 ar  
     3     1    26 1   
     4     2    13 ar  
     5     2    15 ar  
     6     2    27 1   
     7     3    10 ar  
     8     3    19 ar  
     9     3    40 1   
    10     4     6 ar  
    11     4    19 ar  
    12     4    28 1   
    13     5     7 ar  
    14     5    20 ar  
    15     5    29 1   
    16     6    11 ar  
    17     6    18 1   
    18     7    16 ar  
    19     7    25 1   
    20     8    20 ar  
    21     8    21 ar  
    22     8    39 1   
    23     9    13 1   
    24     9    17 1   
    25     9    30 1   
    26     9    31 1   
    27    10    11 ar  
    28    10    32 1   
    29    11    33 1   
    30    12    14 ar  
    31    12    34 1   
    32    13    14 ar  
    33    14    22 1   
    34    15    23 1   
    35    16    21 ar  
    36    16    23 1   
    37    17    22 1   
    38    17    24 2   
    39    18    35 1   
    40    18    36 1   
    41    18    39 1   
    42    22    37 1   
    43    23    38 1   
    44    39    41 1   
@<TRIPOS>SUBSTRUCTURE
     1 7Z6         1 TEMP              0 ****  ****    0 ROOT
