@<TRIPOS>MOLECULE
7Z6
   41    44     1     0     0
SMALL
abcg2


@<TRIPOS>ATOM
      1 C4           1.6590     0.9060    -0.3070 ca         1 7Z6      -0.094000
      2 C5           3.6680    -0.3640     0.1270 ca         1 7Z6      -0.113000
      3 C6          -6.1700     3.2660    -0.3440 ca         1 7Z6       0.345900
      4 C7          -5.3930     1.3090    -1.2020 ca         1 7Z6       0.354900
      5 C8          -1.4520    -3.4470     0.3160 ca         1 7Z6       0.192900
      6 C10         -4.9270     0.8720     0.0330 ca         1 7Z6      -0.175300
      7 C13         -0.1060    -3.2000     0.2410 ca         1 7Z6      -0.135000
      8 C15         -1.9020    -1.2480     0.1430 ca         1 7Z6       0.427900
      9 C17          5.8680     1.0500     0.1910 c5         1 7Z6      -0.120100
     10 C1          -5.7440     2.9340     0.9330 ca         1 7Z6      -0.167000
     11 C2          -5.1110     1.7160     1.1220 ca         1 7Z6      -0.057000
     12 C3           2.4070     2.0800    -0.3850 ca         1 7Z6      -0.120000
     13 C9           4.4030     0.7940     0.0450 ca         1 7Z6      -0.114300
     14 C11          3.7710     2.0100    -0.2060 ca         1 7Z6      -0.054000
     15 C12          2.2760    -0.3180    -0.0480 ca         1 7Z6       0.281000
     16 C14          0.3010    -1.8490     0.1110 ca         1 7Z6       0.446900
     17 C16          5.9830     2.5560    -0.0040 c          1 7Z6       0.565000
     18 C18         -4.2250    -0.4470     0.1700 c3         1 7Z6       0.297100
     19 N19         -6.0010     2.4730    -1.3960 nb         1 7Z6      -0.665000
     20 N20         -2.3720    -2.4890     0.2700 nb         1 7Z6      -0.273000
     21 N21         -0.6130    -0.8970     0.0620 nb         1 7Z6      -0.326000
     22 N22          4.7240     3.0230    -0.2310 ns         1 7Z6      -0.147000
     23 N23          1.6150    -1.5490     0.0410 nu         1 7Z6      -0.927900
     24 O25          6.9920     3.2270     0.0340 o          1 7Z6      -0.527000
     25 CL1          1.0430    -4.4920     0.3090 cl         1 7Z6      -0.190000
     26 H1           0.5920     0.9570    -0.4430 ha         1 7Z6       0.151000
     27 H2           4.1610    -1.3080     0.3300 ha         1 7Z6       0.118000
     28 H4          -5.2680     0.6780    -2.0770 h4         1 7Z6       0.024100
     29 H5          -1.8090    -4.4670     0.4200 h4         1 7Z6       0.032100
     30 H6           6.2610     0.7710     1.1720 hc         1 7Z6       0.091200
     31 H7           6.4760     0.5310    -0.5540 hc         1 7Z6       0.091200
     32 H8          -5.9100     3.6130     1.7580 ha         1 7Z6       0.127000
     33 H9          -4.7690     1.4200     2.1060 ha         1 7Z6       0.124000
     34 H10          1.9080     3.0190    -0.5860 ha         1 7Z6       0.123000
     35 H11         -4.4910    -0.9100     1.1240 h1         1 7Z6       0.062200
     36 H12         -4.5580    -1.1310    -0.6150 h1         1 7Z6       0.062200
     37 H13          4.5170     3.9980    -0.3820 hn         1 7Z6       0.172000
     38 H14          2.2360    -2.3400     0.1220 hn         1 7Z6       0.510000
     39 N24         -2.7950    -0.2460     0.0870 nu         1 7Z6      -0.926100
     40 H3          -6.6700     4.2100    -0.5250 h4         1 7Z6       0.022100
     41 H15         -2.4340     0.6880    -0.0150 hn         1 7Z6       0.511000
@<TRIPOS>BOND
     1     1    12 ar  
     2     1    15 ar  
     3     1    26 1   
     4     2    13 ar  
     5     2    15 ar  
     6     2    27 1   
     7     3    10 ar  
     8     3    19 ar  
     9     3    40 1   
    10     4     6 ar  
    11     4    19 ar  
    12     4    28 1   
    13     5     7 ar  
    14     5    20 ar  
    15     5    29 1   
    16     6    11 ar  
    17     6    18 1   
    18     7    16 ar  
    19     7    25 1   
    20     8    20 ar  
    21     8    21 ar  
    22     8    39 1   
    23     9    13 1   
    24     9    17 1   
    25     9    30 1   
    26     9    31 1   
    27    10    11 ar  
    28    10    32 1   
    29    11    33 1   
    30    12    14 ar  
    31    12    34 1   
    32    13    14 ar  
    33    14    22 1   
    34    15    23 1   
    35    16    21 ar  
    36    16    23 1   
    37    17    22 1   
    38    17    24 2   
    39    18    35 1   
    40    18    36 1   
    41    18    39 1   
    42    22    37 1   
    43    23    38 1   
    44    39    41 1   
@<TRIPOS>SUBSTRUCTURE
     1 7Z6         1 TEMP              0 ****  ****    0 ROOT
