@<TRIPOS>MOLECULE
7Z9
   32    34     1     0     0
SMALL
No Charge or Current Charge


@<TRIPOS>ATOM
      1 C15         -2.3220    -0.1830     0.2050 ca         1 7Z9      -0.052000
      2 C17         -3.7410    -2.0600    -0.3850 ca         1 7Z9       0.342400
      3 C20         -2.2340     0.0990    -1.1710 ca         1 7Z9      -0.162000
      4 C19         -2.9100    -0.7260    -2.0860 ca         1 7Z9       0.342400
      5 C11          1.0760    -1.0880     0.8920 c          1 7Z9       0.586600
      6 C16         -3.0990    -1.2860     0.5960 ca         1 7Z9      -0.162000
      7 C2           0.1180     2.5610     0.0300 ca         1 7Z9      -0.064300
      8 C3           0.0140     1.2490     0.5510 ca         1 7Z9      -0.070000
      9 C4           1.0760     0.3140     0.3450 ca         1 7Z9      -0.195600
     10 C5           2.2150     0.6990    -0.4080 ca         1 7Z9       0.224400
     11 C6           2.2850     2.0040    -0.9190 ca         1 7Z9      -0.100000
     12 C7           1.2570     2.9280    -0.7010 ca         1 7Z9      -0.080000
     13 N8           3.3090    -0.1380    -0.6970 nc         1 7Z9      -0.719100
     14 C9           3.1600    -1.3300    -0.1890 cd         1 7Z9       0.732800
     15 N10          2.1580    -1.8120     0.5460 ns         1 7Z9      -0.455400
     16 N13          4.1580    -2.1550    -0.4430 nv         1 7Z9      -1.053200
     17 S14         -1.4910     0.8170     1.4430 ss         1 7Z9       0.093000
     18 N18         -3.6550    -1.7920    -1.7090 nb         1 7Z9      -0.673000
     19 H1          -4.3450    -2.9220    -0.1030 h4         1 7Z9       0.015100
     20 H2          -1.6590     0.9420    -1.5410 ha         1 7Z9       0.129000
     21 H3          -2.8560    -0.5270    -3.1560 h4         1 7Z9       0.015100
     22 H4          -3.2010    -1.5490     1.6450 ha         1 7Z9       0.129000
     23 H5          -1.9340     3.2540    -0.2110 hc         1 7Z9       0.050033
     24 H6          -1.1670     3.7750     1.3030 hc         1 7Z9       0.050033
     25 H7          -0.7420     4.5550    -0.2220 hc         1 7Z9       0.050033
     26 H8           3.1560     2.3070    -1.4940 ha         1 7Z9       0.134000
     27 H9           1.3480     3.9320    -1.1110 ha         1 7Z9       0.118000
     28 H10          2.2040    -2.7490     0.9090 hn         1 7Z9       0.325500
     29 H11          4.7950    -1.7940    -1.1410 hn         1 7Z9       0.503500
     30 H12          3.9300    -3.1370    -0.5400 hn         1 7Z9       0.503500
     31 O12          0.2210    -1.5790     1.6100 o          1 7Z9      -0.512000
     32 C1          -0.9910     3.5900     0.2360 c3         1 7Z9      -0.045800
@<TRIPOS>BOND
     1     1     3 ar  
     2     1     6 ar  
     3     1    17 1   
     4     2     6 ar  
     5     2    18 ar  
     6     2    19 1   
     7     3     4 ar  
     8     3    20 1   
     9     4    18 ar  
    10     4    21 1   
    11     5     9 1   
    12     5    15 1   
    13     5    31 2   
    14     6    22 1   
    15     7     8 ar  
    16     7    12 ar  
    17     7    32 1   
    18     8     9 ar  
    19     8    17 1   
    20     9    10 ar  
    21    10    11 ar  
    22    10    13 1   
    23    11    12 ar  
    24    11    26 1   
    25    12    27 1   
    26    13    14 2   
    27    14    15 1   
    28    14    16 1   
    29    15    28 1   
    30    16    29 1   
    31    16    30 1   
    32    23    32 1   
    33    24    32 1   
    34    25    32 1   
@<TRIPOS>SUBSTRUCTURE
     1 7Z9         1 TEMP              0 ****  ****    0 ROOT
