@<TRIPOS>MOLECULE
7Z9
   32    34     1     0     0
SMALL
bcc


@<TRIPOS>ATOM
      1 C15         -2.3090    -0.2640     0.1880 ca         1 7Z9       0.074900
      2 C17         -4.1200    -1.7550    -0.2630 ca         1 7Z9       0.407700
      3 C20         -1.9830    -0.3560    -1.1610 ca         1 7Z9      -0.245300
      4 C19         -2.7620    -1.1630    -1.9740 ca         1 7Z9       0.407700
      5 C11          1.0430    -1.0830     0.6160 c          1 7Z9       0.729100
      6 C16         -3.4090    -0.9870     0.6440 ca         1 7Z9      -0.245300
      7 C2           0.0890     2.5600     0.0910 ca         1 7Z9      -0.064300
      8 C3           0.0080     1.2270     0.4720 ca         1 7Z9       0.056900
      9 C4           1.0740     0.3290     0.2290 ca         1 7Z9      -0.195600
     10 C5           2.2390     0.7870    -0.4200 ca         1 7Z9       0.224400
     11 C6           2.3080     2.1390    -0.7970 ca         1 7Z9      -0.118000
     12 C7           1.2660     2.9910    -0.5430 ca         1 7Z9      -0.098000
     13 N8           3.3180     0.0050    -0.7090 nc         1 7Z9      -0.719100
     14 C9           3.2730    -1.2400    -0.3480 cd         1 7Z9       0.732800
     15 N10          2.1950    -1.7720     0.2930 ns         1 7Z9      -0.522400
     16 N13          4.3120    -2.0570    -0.5660 nv         1 7Z9      -0.942800
     17 S14         -1.4620     0.7440     1.3430 ss         1 7Z9      -0.160800
     18 N18         -3.8140    -1.8550    -1.5520 nb         1 7Z9      -0.673000
     19 H1          -4.9790    -2.3220     0.0790 h4         1 7Z9       0.015100
     20 H2          -1.1450     0.1810    -1.5840 ha         1 7Z9       0.147000
     21 H3          -2.5170    -1.2460    -3.0280 h4         1 7Z9       0.015100
     22 H4          -3.7110    -0.9610     1.6830 ha         1 7Z9       0.147000
     23 H5          -1.9480     3.2200    -0.1640 hc         1 7Z9       0.050033
     24 H6          -1.2400     3.6930     1.3690 hc         1 7Z9       0.050033
     25 H7          -0.7540     4.5140    -0.1070 hc         1 7Z9       0.050033
     26 H8           3.2030     2.4920    -1.2930 ha         1 7Z9       0.152000
     27 H9           1.3440     4.0270    -0.8470 ha         1 7Z9       0.136000
     28 H10          2.2080    -2.7490     0.5590 hn         1 7Z9       0.325500
     29 H11          5.0630    -1.7210    -1.1440 hn         1 7Z9       0.448300
     30 H12          4.2290    -3.0530    -0.4600 hn         1 7Z9       0.448300
     31 O12          0.1370    -1.6730     1.1700 o          1 7Z9      -0.587500
     32 C1          -1.0220     3.5450     0.3110 c3         1 7Z9      -0.045800
@<TRIPOS>BOND
     1     1     3 ar  
     2     1     6 ar  
     3     1    17 1   
     4     2     6 ar  
     5     2    18 ar  
     6     2    19 1   
     7     3     4 ar  
     8     3    20 1   
     9     4    18 ar  
    10     4    21 1   
    11     5     9 1   
    12     5    15 1   
    13     5    31 2   
    14     6    22 1   
    15     7     8 ar  
    16     7    12 ar  
    17     7    32 1   
    18     8     9 ar  
    19     8    17 1   
    20     9    10 ar  
    21    10    11 ar  
    22    10    13 1   
    23    11    12 ar  
    24    11    26 1   
    25    12    27 1   
    26    13    14 2   
    27    14    15 1   
    28    14    16 1   
    29    15    28 1   
    30    16    29 1   
    31    16    30 1   
    32    23    32 1   
    33    24    32 1   
    34    25    32 1   
@<TRIPOS>SUBSTRUCTURE
     1 7Z9         1 TEMP              0 ****  ****    0 ROOT
