@<TRIPOS>MOLECULE
7ZA
   75    79     1     0     0
SMALL
No Charge or Current Charge


@<TRIPOS>ATOM
      1 N1           6.7220    39.9170    24.1920 n          1 7ZA      -0.411800
      2 C4           6.3480    40.5720    22.9220 c5         1 7ZA       0.161000
      3 C5           6.0030    37.3810    25.9070 ca         1 7ZA      -0.124300
      4 C7           8.6080    33.7340    28.5650 ca         1 7ZA      -0.171000
      5 C8           8.6620    32.7710    29.5930 ca         1 7ZA       0.620900
      6 C10          5.3610    36.5150    25.0000 ca         1 7ZA      -0.147000
      7 C15          8.8540    33.4320    27.2080 ca         1 7ZA      -0.036000
      8 C17          8.4590    35.7650    26.6160 ca         1 7ZA       0.359000
      9 C20          5.3740    39.6550    22.1660 ca         1 7ZA      -0.093300
     10 C21          4.0150    37.3480    27.3220 ca         1 7ZA      -0.177000
     11 C22          6.4240    40.7460    25.3780 c5         1 7ZA       0.106000
     12 C24          8.7780    34.4510    26.2420 ca         1 7ZA      -0.182000
     13 C28          8.0640    35.3290    30.2900 ca         1 7ZA      -0.220000
     14 C2           7.4130    38.6860    24.2460 c          1 7ZA       0.604100
     15 C3           7.4160    37.8940    25.6130 c3         1 7ZA       0.212800
     16 N6           8.3820    36.7520    25.6380 nu         1 7ZA      -0.958200
     17 C9           3.3680    36.4760    26.4160 ca         1 7ZA       0.130100
     18 C11          4.0450    36.0630    25.2430 ca         1 7ZA       0.116100
     19 C12          8.2980    35.0550    28.9350 ca         1 7ZA       0.069000
     20 N13          8.4410    33.0090    30.8790 nb         1 7ZA      -0.772000
     21 O14          7.9340    38.2210    23.2330 o          1 7ZA      -0.614100
     22 O16          2.0730    36.0230    26.6270 os         1 7ZA      -0.341100
     23 C18          8.2270    36.0680    27.9670 ca         1 7ZA      -0.211000
     24 C19          5.3220    37.7930    27.0670 ca         1 7ZA      -0.099000
     25 C25          8.1450    34.2830    31.2240 ca         1 7ZA       0.381900
     26 C27          5.5420    41.8140    23.4100 c5         1 7ZA      -0.088400
     27 C29          1.3720    36.1560    27.8780 c3         1 7ZA       0.173300
     28 C30          6.2620    42.1500    24.7380 c5         1 7ZA      -0.094400
     29 C31          5.5600    39.4280    20.7860 ca         1 7ZA      -0.092500
     30 C32          4.2960    39.0110    22.8180 ca         1 7ZA      -0.092500
     31 C33          4.0130    34.7240    23.1610 c3         1 7ZA       0.155600
     32 C34         -0.1050    35.8270    27.5920 c3         1 7ZA      -0.105600
     33 C35          1.9980    35.1800    28.9010 c3         1 7ZA      -0.105600
     34 C36          2.9740    33.8720    22.4150 c3         1 7ZA      -0.092100
     35 C37          4.6900    38.5840    20.0740 ca         1 7ZA      -0.113500
     36 C38          3.4250    38.1690    22.1060 ca         1 7ZA      -0.113500
     37 C39          3.6220    37.9540    20.7330 ca         1 7ZA      -0.109000
     38 H1           7.2330    40.8450    22.3320 h1         1 7ZA       0.071700
     39 H2           5.8980    36.2090    24.1070 ha         1 7ZA       0.132000
     40 H3           9.1050    32.4220    26.8950 ha         1 7ZA       0.106000
     41 H4           3.5210    37.6960    28.2220 ha         1 7ZA       0.120000
     42 H5           5.4950    40.4140    25.8600 h1         1 7ZA       0.051200
     43 H6           7.2320    40.7360    26.1210 h1         1 7ZA       0.051200
     44 H7           8.9630    34.2140    25.1990 ha         1 7ZA       0.114000
     45 H8           7.8210    36.3330    30.6250 ha         1 7ZA       0.118000
     46 H9           7.7030    38.6080    26.3950 h1         1 7ZA       0.072700
     47 H10          8.7060    36.4580    24.7140 hn         1 7ZA       0.505000
     48 H11          7.9930    37.0850    28.2640 ha         1 7ZA       0.116000
     49 H12          5.8030    38.4670    27.7730 ha         1 7ZA       0.109000
     50 H13          8.7050    30.9000    30.2330 hn         1 7ZA       0.468500
     51 H14          8.7170    31.0640    28.5210 hn         1 7ZA       0.468500
     52 H15          7.9660    34.4700    32.2820 h4         1 7ZA       0.011100
     53 H16          5.5760    42.6380    22.6880 hc         1 7ZA       0.059200
     54 H17          4.4850    41.5900    23.5940 hc         1 7ZA       0.059200
     55 H18          1.4220    37.1840    28.2570 h1         1 7ZA       0.038700
     56 H19          7.2390    42.6130    24.5530 hc         1 7ZA       0.057700
     57 H20          5.6890    42.8360    25.3720 hc         1 7ZA       0.057700
     58 H21          6.3840    39.9080    20.2640 ha         1 7ZA       0.114500
     59 H22          4.1320    39.1590    23.8830 ha         1 7ZA       0.114500
     60 H23          4.8870    34.1060    23.4060 h1         1 7ZA       0.040200
     61 H24          4.3360    35.5480    22.5120 h1         1 7ZA       0.040200
     62 H25         -0.7010    35.9060    28.5090 hc         1 7ZA       0.047867
     63 H26         -0.5180    36.5270    26.8570 hc         1 7ZA       0.047867
     64 H27         -0.2110    34.8080    27.1990 hc         1 7ZA       0.047867
     65 H28          1.4410    35.2090    29.8450 hc         1 7ZA       0.047867
     66 H29          1.9740    34.1510    28.5210 hc         1 7ZA       0.047867
     67 H30          3.0390    35.4430    29.1180 hc         1 7ZA       0.047867
     68 H31          3.4070    33.4670    21.4940 hc         1 7ZA       0.046700
     69 H32          2.6430    33.0330    23.0390 hc         1 7ZA       0.046700
     70 H33          2.1000    34.4770    22.1470 hc         1 7ZA       0.046700
     71 H34          4.8450    38.4180    19.0100 ha         1 7ZA       0.117000
     72 H35          2.6020    37.6800    22.6220 ha         1 7ZA       0.117000
     73 H36          2.9500    37.2990    20.1820 ha         1 7ZA       0.111000
     74 O26          3.3890    35.2220    24.3560 os         1 7ZA      -0.338100
     75 N23          8.9240    31.4700    29.4250 nv         1 7ZA      -1.054900
@<TRIPOS>BOND
     1     1     2 1   
     2     1    11 1   
     3     1    14 1   
     4     2     9 1   
     5     2    26 1   
     6     2    38 1   
     7     3     6 ar  
     8     3    15 1   
     9     3    24 ar  
    10     4     5 ar  
    11     4     7 ar  
    12     4    19 ar  
    13     5    20 ar  
    14     5    75 1   
    15     6    18 ar  
    16     6    39 1   
    17     7    12 ar  
    18     7    40 1   
    19     8    12 ar  
    20     8    16 1   
    21     8    23 ar  
    22     9    29 ar  
    23     9    30 ar  
    24    10    17 ar  
    25    10    24 ar  
    26    10    41 1   
    27    11    28 1   
    28    11    42 1   
    29    11    43 1   
    30    12    44 1   
    31    13    19 ar  
    32    13    25 ar  
    33    13    45 1   
    34    14    15 1   
    35    14    21 2   
    36    15    16 1   
    37    15    46 1   
    38    16    47 1   
    39    17    18 ar  
    40    17    22 1   
    41    18    74 1   
    42    19    23 ar  
    43    20    25 ar  
    44    22    27 1   
    45    23    48 1   
    46    24    49 1   
    47    25    52 1   
    48    26    28 1   
    49    26    53 1   
    50    26    54 1   
    51    27    32 1   
    52    27    33 1   
    53    27    55 1   
    54    28    56 1   
    55    28    57 1   
    56    29    35 ar  
    57    29    58 1   
    58    30    36 ar  
    59    30    59 1   
    60    31    34 1   
    61    31    60 1   
    62    31    61 1   
    63    31    74 1   
    64    32    62 1   
    65    32    63 1   
    66    32    64 1   
    67    33    65 1   
    68    33    66 1   
    69    33    67 1   
    70    34    68 1   
    71    34    69 1   
    72    34    70 1   
    73    35    37 ar  
    74    35    71 1   
    75    36    37 ar  
    76    36    72 1   
    77    37    73 1   
    78    50    75 1   
    79    51    75 1   
@<TRIPOS>SUBSTRUCTURE
     1 7ZA         1 TEMP              0 ****  ****    0 ROOT
