@<TRIPOS>MOLECULE
7ZA
   75    79     1     0     0
SMALL
abcg2


@<TRIPOS>ATOM
      1 N1           6.7060    39.6460    24.3920 n          1 7ZA      -0.411800
      2 C4           6.3100    40.2760    23.1150 c5         1 7ZA       0.161000
      3 C5           5.8540    37.2140    26.0080 ca         1 7ZA      -0.124300
      4 C7           9.1960    33.7710    28.5670 ca         1 7ZA      -0.171000
      5 C8           9.5090    32.8380    29.6090 ca         1 7ZA       0.620900
      6 C10          5.2560    36.3160    25.1190 ca         1 7ZA      -0.147000
      7 C15          9.5790    33.6010    27.2150 ca         1 7ZA      -0.036000
      8 C17          8.5100    35.6950    26.6020 ca         1 7ZA       0.359000
      9 C20          5.2630    39.4660    22.3850 ca         1 7ZA      -0.093300
     10 C21          3.7710    37.3640    27.2150 ca         1 7ZA      -0.177000
     11 C22          6.4580    40.5240    25.5430 c5         1 7ZA       0.106000
     12 C24          9.2480    34.5250    26.2640 ca         1 7ZA      -0.182000
     13 C28          8.0890    35.1050    30.2760 ca         1 7ZA      -0.220000
     14 C2           7.2480    38.4200    24.4010 c          1 7ZA       0.604100
     15 C3           7.2850    37.6720    25.7440 c3         1 7ZA       0.212800
     16 N6           8.2430    36.6000    25.6110 nu         1 7ZA      -0.958200
     17 C9           3.1620    36.4930    26.3220 ca         1 7ZA       0.130100
     18 C11          3.9240    35.9620    25.2530 ca         1 7ZA       0.116100
     19 C12          8.4590    34.9370    28.9140 ca         1 7ZA       0.069000
     20 N13          9.1490    33.0260    30.8710 nb         1 7ZA      -0.772000
     21 O14          7.5970    37.8440    23.3670 o          1 7ZA      -0.614100
     22 O16          1.8620    36.1040    26.3590 os         1 7ZA      -0.341100
     23 C18          8.1240    35.8790    27.9230 ca         1 7ZA      -0.211000
     24 C19          5.1090    37.7290    27.0520 ca         1 7ZA      -0.099000
     25 C25          8.4550    34.1500    31.1800 ca         1 7ZA       0.381900
     26 C27          5.8090    41.6700    23.5530 c5         1 7ZA      -0.088400
     27 C29          0.9980    36.5510    27.4290 c3         1 7ZA       0.173300
     28 C30          6.4800    41.9100    24.9050 c5         1 7ZA      -0.094400
     29 C31          5.3360    39.2920    21.0060 ca         1 7ZA      -0.092500
     30 C32          4.1920    38.9000    23.0800 ca         1 7ZA      -0.092500
     31 C33          3.9520    34.6770    23.2300 c3         1 7ZA       0.155600
     32 C34         -0.4180    36.3990    26.9080 c3         1 7ZA      -0.105600
     33 C35          1.2510    35.7360    28.6880 c3         1 7ZA      -0.105600
     34 C36          2.9580    33.9240    22.3770 c3         1 7ZA      -0.092100
     35 C37          4.3590    38.5660    20.3290 ca         1 7ZA      -0.113500
     36 C38          3.2220    38.1670    22.4100 ca         1 7ZA      -0.113500
     37 C39          3.3010    37.9980    21.0300 ca         1 7ZA      -0.109000
     38 H1           7.1920    40.3710    22.4800 h1         1 7ZA       0.071700
     39 H2           5.8370    35.9270    24.2970 ha         1 7ZA       0.132000
     40 H3          10.1500    32.7340    26.9100 ha         1 7ZA       0.106000
     41 H4           3.2150    37.7730    28.0450 ha         1 7ZA       0.120000
     42 H5           5.4810    40.3110    25.9860 h1         1 7ZA       0.051200
     43 H6           7.2220    40.3930    26.3050 h1         1 7ZA       0.051200
     44 H7           9.5490    34.3790    25.2330 ha         1 7ZA       0.114000
     45 H8           7.5280    35.9780    30.5850 ha         1 7ZA       0.118000
     46 H9           7.5900    38.3440    26.5460 h1         1 7ZA       0.072700
     47 H10          8.4080    36.3200    24.6540 hn         1 7ZA       0.505000
     48 H11          7.5580    36.7510    28.2160 ha         1 7ZA       0.116000
     49 H12          5.5600    38.4180    27.7550 ha         1 7ZA       0.109000
     50 H13         10.2370    31.0170    30.0720 hn         1 7ZA       0.468500
     51 H14         10.2360    31.3360    28.4110 hn         1 7ZA       0.468500
     52 H15          8.1870    34.2560    32.2270 h4         1 7ZA       0.011100
     53 H16          6.0470    42.4260    22.8060 hc         1 7ZA       0.059200
     54 H17          4.7250    41.6430    23.6750 hc         1 7ZA       0.059200
     55 H18          1.1980    37.6090    27.6160 h1         1 7ZA       0.038700
     56 H19          7.5130    42.2390    24.7710 hc         1 7ZA       0.057700
     57 H20          5.9590    42.6500    25.5130 hc         1 7ZA       0.057700
     58 H21          6.1710    39.7170    20.4600 ha         1 7ZA       0.114500
     59 H22          4.1290    39.0120    24.1550 ha         1 7ZA       0.114500
     60 H23          4.7810    34.0320    23.5360 h1         1 7ZA       0.040200
     61 H24          4.3620    35.5330    22.6890 h1         1 7ZA       0.040200
     62 H25         -1.1290    36.7300    27.6660 hc         1 7ZA       0.047867
     63 H26         -0.5650    36.9990    26.0090 hc         1 7ZA       0.047867
     64 H27         -0.6260    35.3530    26.6710 hc         1 7ZA       0.047867
     65 H28          0.6080    36.0920    29.4940 hc         1 7ZA       0.047867
     66 H29          1.0240    34.6840    28.5020 hc         1 7ZA       0.047867
     67 H30          2.2860    35.8150    29.0170 hc         1 7ZA       0.047867
     68 H31          3.4590    33.5420    21.4860 hc         1 7ZA       0.046700
     69 H32          2.5360    33.0790    22.9240 hc         1 7ZA       0.046700
     70 H33          2.1450    34.5800    22.0610 hc         1 7ZA       0.046700
     71 H34          4.4330    38.4360    19.2560 ha         1 7ZA       0.117000
     72 H35          2.4120    37.7130    22.9680 ha         1 7ZA       0.117000
     73 H36          2.5480    37.4210    20.5080 ha         1 7ZA       0.111000
     74 O26          3.2590    35.1450    24.3960 os         1 7ZA      -0.338100
     75 N23         10.2520    31.7140    29.3440 nv         1 7ZA      -1.054900
@<TRIPOS>BOND
     1     1     2 1   
     2     1    11 1   
     3     1    14 1   
     4     2     9 1   
     5     2    26 1   
     6     2    38 1   
     7     3     6 ar  
     8     3    15 1   
     9     3    24 ar  
    10     4     5 ar  
    11     4     7 ar  
    12     4    19 ar  
    13     5    20 ar  
    14     5    75 1   
    15     6    18 ar  
    16     6    39 1   
    17     7    12 ar  
    18     7    40 1   
    19     8    12 ar  
    20     8    16 1   
    21     8    23 ar  
    22     9    29 ar  
    23     9    30 ar  
    24    10    17 ar  
    25    10    24 ar  
    26    10    41 1   
    27    11    28 1   
    28    11    42 1   
    29    11    43 1   
    30    12    44 1   
    31    13    19 ar  
    32    13    25 ar  
    33    13    45 1   
    34    14    15 1   
    35    14    21 2   
    36    15    16 1   
    37    15    46 1   
    38    16    47 1   
    39    17    18 ar  
    40    17    22 1   
    41    18    74 1   
    42    19    23 ar  
    43    20    25 ar  
    44    22    27 1   
    45    23    48 1   
    46    24    49 1   
    47    25    52 1   
    48    26    28 1   
    49    26    53 1   
    50    26    54 1   
    51    27    32 1   
    52    27    33 1   
    53    27    55 1   
    54    28    56 1   
    55    28    57 1   
    56    29    35 ar  
    57    29    58 1   
    58    30    36 ar  
    59    30    59 1   
    60    31    34 1   
    61    31    60 1   
    62    31    61 1   
    63    31    74 1   
    64    32    62 1   
    65    32    63 1   
    66    32    64 1   
    67    33    65 1   
    68    33    66 1   
    69    33    67 1   
    70    34    68 1   
    71    34    69 1   
    72    34    70 1   
    73    35    37 ar  
    74    35    71 1   
    75    36    37 ar  
    76    36    72 1   
    77    37    73 1   
    78    50    75 1   
    79    51    75 1   
@<TRIPOS>SUBSTRUCTURE
     1 7ZA         1 TEMP              0 ****  ****    0 ROOT
