@<TRIPOS>MOLECULE
7ZB
   60    64     1     0     0
SMALL
bcc


@<TRIPOS>ATOM
      1 C10          1.7460   -39.5530   -18.9990 cc         1 7ZB       0.381800
      2 C01          2.0430   -40.0020   -25.7760 c3         1 7ZB      -0.049800
      3 C02          1.0660   -38.8620   -25.7720 ca         1 7ZB      -0.046300
      4 C03          0.7700   -38.1990   -24.5840 ca         1 7ZB      -0.173000
      5 C04         -0.1310   -37.1330   -24.5830 ca         1 7ZB       0.179600
      6 C06         -0.3400   -36.6500   -22.1280 ca         1 7ZB       0.912900
      7 C08          0.2340   -38.0240   -20.4140 ca         1 7ZB       0.568800
      8 C09          0.7910   -39.2990   -19.9610 cd         1 7ZB      -0.273100
      9 C11          2.5290   -38.6010   -18.2100 ca         1 7ZB      -0.096500
     10 C12          2.9920   -37.4040   -18.7560 ca         1 7ZB      -0.109500
     11 C13          3.7260   -36.5070   -17.9970 ca         1 7ZB      -0.108500
     12 C14          4.0150   -36.8160   -16.6760 ca         1 7ZB      -0.016900
     13 C16          3.5900   -38.0110   -16.1140 ca         1 7ZB      -0.108500
     14 C17          2.8520   -38.8950   -16.8850 ca         1 7ZB      -0.109500
     15 C19          1.1140   -41.4450   -19.7390 cd         1 7ZB       0.401400
     16 C21         -0.6070   -40.8370   -21.4360 c6         1 7ZB       0.047000
     17 C22         -0.0020   -41.5270   -22.6510 c6         1 7ZB      -0.124900
     18 C23         -1.0630   -41.5980   -23.7660 c6         1 7ZB       0.155800
     19 C25         -2.5320   -42.3540   -22.0080 c6         1 7ZB       0.155800
     20 C26         -1.7510   -41.6780   -20.8610 c6         1 7ZB      -0.124900
     21 C27         -0.1910   -37.0740   -19.4960 ca         1 7ZB      -0.399600
     22 C28         -0.6810   -35.8920   -20.0280 ca         1 7ZB       0.480200
     23 C30         -0.7210   -36.7390   -25.7860 ca         1 7ZB      -0.173000
     24 C31         -0.4320   -37.3910   -26.9760 ca         1 7ZB      -0.046300
     25 C32         -1.1000   -36.9730   -28.2550 c3         1 7ZB      -0.049800
     26 C33          0.4640   -38.4560   -26.9580 ca         1 7ZB      -0.156000
     27 N07          0.1590   -37.8130   -21.7260 nb         1 7ZB      -0.771000
     28 N18          1.9280   -40.8970   -18.8740 nc         1 7ZB      -0.667000
     29 N20          0.4050   -40.5300   -20.4300 na         1 7ZB      -0.154900
     30 N24         -2.4370   -41.6560   -23.2770 n7         1 7ZB      -0.799200
     31 N29         -0.7620   -35.6650   -21.3260 nb         1 7ZB      -0.766000
     32 BR15         5.0070   -35.5930   -15.6330 br         1 7ZB      -0.103100
     33 H1           2.9080   -39.7780   -26.4020 hc         1 7ZB       0.043700
     34 H2           2.4070   -40.2240   -24.7730 hc         1 7ZB       0.043700
     35 H3           1.5870   -40.9110   -26.1730 hc         1 7ZB       0.043700
     36 H5           2.7990   -37.1680   -19.7940 ha         1 7ZB       0.144000
     37 H6           4.0750   -35.5860   -18.4450 ha         1 7ZB       0.147000
     38 H7           3.8200   -38.2570   -15.0860 ha         1 7ZB       0.147000
     39 H8           2.5150   -39.8230   -16.4430 ha         1 7ZB       0.144000
     40 H9           0.9990   -42.5060   -19.9020 h5         1 7ZB       0.059100
     41 H10         -1.0060   -39.8780   -21.7620 h1         1 7ZB       0.086700
     42 H11          0.3360   -42.5290   -22.3720 hc         1 7ZB       0.056700
     43 H12          0.8760   -40.9800   -23.0000 hc         1 7ZB       0.056700
     44 H13         -0.8610   -42.4710   -24.3930 h1         1 7ZB       0.057700
     45 H14         -0.9740   -40.7220   -24.4100 h1         1 7ZB       0.057700
     46 H15         -3.5820   -42.4570   -21.7320 h1         1 7ZB       0.057700
     47 H16         -2.1550   -43.3690   -22.1590 h1         1 7ZB       0.057700
     48 H17         -2.4050   -41.0370   -20.2660 hc         1 7ZB       0.056700
     49 H18         -1.3640   -42.4480   -20.1900 hc         1 7ZB       0.056700
     50 H19         -0.1510   -37.2440   -18.4310 ha         1 7ZB       0.168000
     51 H20         -1.0310   -35.0990   -19.3760 h4         1 7ZB       0.028100
     52 H21         -1.4180   -35.9070   -25.7890 ha         1 7ZB       0.145500
     53 H22         -1.9590   -37.6110   -28.4730 hc         1 7ZB       0.043700
     54 H23         -1.4610   -35.9470   -28.2040 hc         1 7ZB       0.043700
     55 H24         -0.4200   -37.0510   -29.1030 hc         1 7ZB       0.043700
     56 H25          0.7000   -38.9720   -27.8830 ha         1 7ZB       0.132000
     57 H26         -0.9330   -35.5100   -23.6400 hn         1 7ZB       0.456800
     58 H27         -2.8050   -40.7190   -23.1760 hn         1 7ZB       0.356800
     59 N05         -0.4620   -36.3830   -23.4550 nu         1 7ZB      -0.737300
     60 H4           1.2450   -38.5130   -23.6690 ha         1 7ZB       0.145500
@<TRIPOS>BOND
     1     1     8 2   
     2     1     9 1   
     3     1    28 1   
     4     2     3 1   
     5     2    33 1   
     6     2    34 1   
     7     2    35 1   
     8     3     4 ar  
     9     3    26 ar  
    10     4     5 ar  
    11     4    60 1   
    12     5    23 ar  
    13     5    59 1   
    14     6    27 ar  
    15     6    31 ar  
    16     6    59 1   
    17     7     8 1   
    18     7    21 ar  
    19     7    27 ar  
    20     8    29 1   
    21     9    10 ar  
    22     9    14 ar  
    23    10    11 ar  
    24    10    36 1   
    25    11    12 ar  
    26    11    37 1   
    27    12    13 ar  
    28    12    32 1   
    29    13    14 ar  
    30    13    38 1   
    31    14    39 1   
    32    15    28 2   
    33    15    29 1   
    34    15    40 1   
    35    16    17 1   
    36    16    20 1   
    37    16    29 1   
    38    16    41 1   
    39    17    18 1   
    40    17    42 1   
    41    17    43 1   
    42    18    30 1   
    43    18    44 1   
    44    18    45 1   
    45    19    20 1   
    46    19    30 1   
    47    19    46 1   
    48    19    47 1   
    49    20    48 1   
    50    20    49 1   
    51    21    22 ar  
    52    21    50 1   
    53    22    31 ar  
    54    22    51 1   
    55    23    24 ar  
    56    23    52 1   
    57    24    25 1   
    58    24    26 ar  
    59    25    53 1   
    60    25    54 1   
    61    25    55 1   
    62    26    56 1   
    63    30    58 1   
    64    57    59 1   
@<TRIPOS>SUBSTRUCTURE
     1 7ZB         1 TEMP              0 ****  ****    0 ROOT
