@<TRIPOS>MOLECULE
7ZB
   60    64     1     0     0
SMALL
No Charge or Current Charge


@<TRIPOS>ATOM
      1 C10          1.6070   -39.6440   -18.8680 cc         1 7ZB       0.316500
      2 C01          2.2520   -39.8600   -25.8790 c3         1 7ZB      -0.049800
      3 C02          1.1310   -38.8350   -25.8100 ca         1 7ZB      -0.046300
      4 C03          0.9600   -38.0380   -24.6630 ca         1 7ZB      -0.155000
      5 C04         -0.0870   -37.1020   -24.5890 ca         1 7ZB       0.318000
      6 C06         -0.0630   -36.4940   -22.1020 ca         1 7ZB       0.386900
      7 C08          0.3910   -37.9210   -20.3550 ca         1 7ZB       0.240500
      8 C09          0.7680   -39.2770   -19.8960 cd         1 7ZB      -0.258500
      9 C11          2.3550   -38.6880   -18.0480 ca         1 7ZB      -0.096500
     10 C12          3.1320   -37.6730   -18.6480 ca         1 7ZB      -0.091500
     11 C13          3.8770   -36.7830   -17.8550 ca         1 7ZB      -0.090500
     12 C14          3.8690   -36.9150   -16.4570 ca         1 7ZB      -0.016900
     13 C16          3.1280   -37.9420   -15.8510 ca         1 7ZB      -0.090500
     14 C17          2.3820   -38.8310   -16.6450 ca         1 7ZB      -0.091500
     15 C19          0.9780   -41.5160   -19.6800 cd         1 7ZB       0.401400
     16 C21         -0.6230   -40.7410   -21.5130 c6         1 7ZB       0.076300
     17 C22          0.0750   -41.1800   -22.8200 c6         1 7ZB      -0.124900
     18 C23         -0.9380   -41.2770   -23.9950 c6         1 7ZB       0.155800
     19 C25         -2.4330   -42.3920   -22.3590 c6         1 7ZB       0.155800
     20 C26         -1.7320   -41.7660   -21.1220 c6         1 7ZB      -0.124900
     21 C27          0.2750   -36.8310   -19.4720 ca         1 7ZB      -0.251000
     22 C28         -0.0440   -35.5750   -20.0110 ca         1 7ZB       0.151900
     23 C30         -0.9480   -36.9450   -25.6870 ca         1 7ZB      -0.155000
     24 C31         -0.7890   -37.7340   -26.8420 ca         1 7ZB      -0.046300
     25 C32         -1.7390   -37.5720   -28.0180 c3         1 7ZB      -0.049800
     26 C33          0.2480   -38.6830   -26.8940 ca         1 7ZB      -0.138000
     27 N07          0.2280   -37.7360   -21.6800 nb         1 7ZB      -0.245000
     28 N18          1.7240   -40.9940   -18.7170 nc         1 7ZB      -0.667000
     29 N20          0.3660   -40.5090   -20.4230 na         1 7ZB      -0.133500
     30 N24         -2.3400   -41.5080   -23.5430 n7         1 7ZB      -0.854400
     31 N29         -0.2210   -35.4040   -21.3350 nb         1 7ZB      -0.240000
     32 Br15         4.8840   -35.7050   -15.3790 br         1 7ZB      -0.103100
     33 H1           2.7640   -39.8200   -26.8480 hc         1 7ZB       0.043700
     34 H2           3.0060   -39.6900   -25.1010 hc         1 7ZB       0.043700
     35 H3           1.8600   -40.8750   -25.7480 hc         1 7ZB       0.043700
     36 H5           3.1570   -37.5730   -19.7310 ha         1 7ZB       0.126000
     37 H6           4.4630   -35.9960   -18.3250 ha         1 7ZB       0.129000
     38 H7           3.1330   -38.0520   -14.7690 ha         1 7ZB       0.129000
     39 H8           1.8150   -39.6290   -16.1690 ha         1 7ZB       0.126000
     40 H9           0.8310   -42.5690   -19.8880 h5         1 7ZB       0.059100
     41 H10         -1.1410   -39.7950   -21.7160 h1         1 7ZB       0.086700
     42 H11          0.5530   -42.1580   -22.6690 hc         1 7ZB       0.056700
     43 H12          0.8800   -40.4810   -23.0820 hc         1 7ZB       0.056700
     44 H13         -0.6240   -42.0920   -24.6650 h1         1 7ZB       0.057700
     45 H14         -0.9100   -40.3490   -24.5860 h1         1 7ZB       0.057700
     46 H15         -3.4880   -42.6010   -22.1210 h1         1 7ZB       0.057700
     47 H16         -1.9580   -43.3570   -22.5960 h1         1 7ZB       0.057700
     48 H17         -2.4760   -41.2580   -20.4930 hc         1 7ZB       0.056700
     49 H18         -1.3330   -42.5850   -20.5110 hc         1 7ZB       0.056700
     50 H19          0.3960   -36.9500   -18.4000 ha         1 7ZB       0.150000
     51 H20         -0.1640   -34.6970   -19.3780 h4         1 7ZB       0.028100
     52 H21         -1.7530   -36.2180   -25.6400 ha         1 7ZB       0.127500
     53 H22         -2.6070   -38.2330   -27.9120 hc         1 7ZB       0.043700
     54 H23         -2.1080   -36.5420   -28.0950 hc         1 7ZB       0.043700
     55 H24         -1.2460   -37.8160   -28.9670 hc         1 7ZB       0.043700
     56 H25          0.3720   -39.3010   -27.7800 ha         1 7ZB       0.114000
     57 H26         -0.7580   -35.4220   -23.6550 hn         1 7ZB       0.512000
     58 H27         -2.7510   -40.6020   -23.2870 hn         1 7ZB       0.412000
     59 N05         -0.2770   -36.3000   -23.4600 nu         1 7ZB      -0.930900
     60 H4           1.6520   -38.1420   -23.8340 ha         1 7ZB       0.127500
@<TRIPOS>BOND
     1     1     8 2   
     2     1     9 1   
     3     1    28 1   
     4     2     3 1   
     5     2    33 1   
     6     2    34 1   
     7     2    35 1   
     8     3     4 ar  
     9     3    26 ar  
    10     4     5 ar  
    11     4    60 1   
    12     5    23 ar  
    13     5    59 1   
    14     6    27 ar  
    15     6    31 ar  
    16     6    59 1   
    17     7     8 1   
    18     7    21 ar  
    19     7    27 ar  
    20     8    29 1   
    21     9    10 ar  
    22     9    14 ar  
    23    10    11 ar  
    24    10    36 1   
    25    11    12 ar  
    26    11    37 1   
    27    12    13 ar  
    28    12    32 1   
    29    13    14 ar  
    30    13    38 1   
    31    14    39 1   
    32    15    28 2   
    33    15    29 1   
    34    15    40 1   
    35    16    17 1   
    36    16    20 1   
    37    16    29 1   
    38    16    41 1   
    39    17    18 1   
    40    17    42 1   
    41    17    43 1   
    42    18    30 1   
    43    18    44 1   
    44    18    45 1   
    45    19    20 1   
    46    19    30 1   
    47    19    46 1   
    48    19    47 1   
    49    20    48 1   
    50    20    49 1   
    51    21    22 ar  
    52    21    50 1   
    53    22    31 ar  
    54    22    51 1   
    55    23    24 ar  
    56    23    52 1   
    57    24    25 1   
    58    24    26 ar  
    59    25    53 1   
    60    25    54 1   
    61    25    55 1   
    62    26    56 1   
    63    30    58 1   
    64    57    59 1   
@<TRIPOS>SUBSTRUCTURE
     1 7ZB         1 TEMP              0 ****  ****    0 ROOT
