@<TRIPOS>MOLECULE
7ZC
   31    32     1     0     0
SMALL
No Charge or Current Charge


@<TRIPOS>ATOM
      1 C1           4.4380     1.6380     0.3370 c3         1 7ZC       0.151900
      2 O2           3.0110     1.6350     0.5230 os         1 7ZC      -0.348100
      3 C3           2.2380     0.5190     0.2730 ca         1 7ZC       0.109100
      4 C4           2.7960    -0.7080    -0.1870 ca         1 7ZC      -0.169000
      5 C5           1.9650    -1.8240    -0.4320 ca         1 7ZC      -0.091000
      6 C6           0.5910    -1.6800    -0.2070 ca         1 7ZC      -0.080200
      7 N7          -0.4220    -2.6090    -0.3730 na         1 7ZC      -0.225700
      8 C8          -1.6650    -2.0320    -0.0330 cc         1 7ZC      -0.126100
      9 C9          -1.3700    -0.7270     0.3470 cd         1 7ZC      -0.155400
     10 C10         -2.3840     0.2960     0.8050 c3         1 7ZC       0.241000
     11 N11         -3.1820     0.8740    -0.3030 n3         1 7ZC      -0.713600
     12 C12         -4.2970     1.7120     0.1890 c3         1 7ZC       0.149600
     13 C13         -2.3540     1.5790    -1.3100 c3         1 7ZC       0.149600
     14 C14          0.0560    -0.5050     0.2360 ca         1 7ZC      -0.055800
     15 C15          0.8470     0.6230     0.4880 ca         1 7ZC      -0.108000
     16 H1           4.6950     1.4220    -0.7080 h1         1 7ZC       0.036367
     17 H2           4.8530     2.6210     0.5920 h1         1 7ZC       0.036367
     18 H3           4.9170     0.8900     0.9810 h1         1 7ZC       0.036367
     19 H4           3.8630    -0.8110    -0.3590 ha         1 7ZC       0.114000
     20 H5           2.3820    -2.7650    -0.7850 ha         1 7ZC       0.112000
     21 H6          -0.2880    -3.5630    -0.6960 hn         1 7ZC       0.349000
     22 H7          -2.6100    -2.5650    -0.0870 h4         1 7ZC       0.215000
     23 H8          -3.0520    -0.1990     1.5230 h1         1 7ZC       0.033700
     24 H9          -1.8650     1.0940     1.3530 h1         1 7ZC       0.033700
     25 H11         -3.9190     2.5900     0.7290 h1         1 7ZC       0.030033
     26 H12         -4.9170     2.0620    -0.6470 h1         1 7ZC       0.030033
     27 H13         -4.9410     1.1400     0.8700 h1         1 7ZC       0.030033
     28 H14         -1.6110     0.9030    -1.7540 h1         1 7ZC       0.030033
     29 H15         -2.9800     1.9650    -2.1260 h1         1 7ZC       0.030033
     30 H16         -1.8210     2.4250    -0.8560 h1         1 7ZC       0.030033
     31 H17          0.4080     1.5540     0.8350 ha         1 7ZC       0.128000
@<TRIPOS>BOND
     1     1     2 1   
     2     1    16 1   
     3     1    17 1   
     4     1    18 1   
     5     2     3 1   
     6     3     4 ar  
     7     3    15 ar  
     8     4     5 ar  
     9     4    19 1   
    10     5     6 ar  
    11     5    20 1   
    12     6     7 1   
    13     6    14 ar  
    14     7     8 1   
    15     7    21 1   
    16     8     9 2   
    17     8    22 1   
    18     9    10 1   
    19     9    14 1   
    20    10    11 1   
    21    10    23 1   
    22    10    24 1   
    23    11    12 1   
    24    11    13 1   
    25    12    25 1   
    26    12    26 1   
    27    12    27 1   
    28    13    28 1   
    29    13    29 1   
    30    13    30 1   
    31    14    15 ar  
    32    15    31 1   
@<TRIPOS>SUBSTRUCTURE
     1 7ZC         1 TEMP              0 ****  ****    0 ROOT
