@<TRIPOS>MOLECULE
7ZC
   31    32     1     0     0
SMALL
bcc


@<TRIPOS>ATOM
      1 C1           4.3260     1.5960     0.2640 c3         1 7ZC       0.128700
      2 O2           2.9300     1.6440     0.4570 os         1 7ZC      -0.324900
      3 C3           2.2010     0.5210     0.2350 ca         1 7ZC       0.109100
      4 C4           2.7680    -0.6970    -0.1870 ca         1 7ZC      -0.187000
      5 C5           1.9770    -1.8110    -0.4060 ca         1 7ZC      -0.109000
      6 C6           0.6090    -1.7000    -0.1980 ca         1 7ZC      -0.080200
      7 N7          -0.4000    -2.6150    -0.3330 na         1 7ZC      -0.175400
      8 C8          -1.5840    -2.0260    -0.0030 cc         1 7ZC      -0.076100
      9 C9          -1.3850    -0.7190     0.3500 cd         1 7ZC      -0.155400
     10 C10         -2.4320     0.2590     0.7710 c3         1 7ZC       0.241000
     11 N11         -3.1430     0.8750    -0.3410 n3         1 7ZC      -0.713600
     12 C12         -4.2290     1.6970     0.1460 c3         1 7ZC       0.149600
     13 C13         -2.2650     1.6380    -1.2010 c3         1 7ZC       0.149600
     14 C14          0.0240    -0.4880     0.2300 ca         1 7ZC      -0.055800
     15 C15          0.8350     0.6290     0.4440 ca         1 7ZC      -0.126000
     16 H1           4.5930     1.3580    -0.7690 h1         1 7ZC       0.036367
     17 H2           4.7060     2.5880     0.4980 h1         1 7ZC       0.036367
     18 H3           4.8120     0.8740     0.9260 h1         1 7ZC       0.036367
     19 H4           3.8340    -0.7860    -0.3470 ha         1 7ZC       0.132000
     20 H5           2.4260    -2.7410    -0.7310 ha         1 7ZC       0.130000
     21 H6          -0.2910    -3.5740    -0.6140 hn         1 7ZC       0.298700
     22 H7          -2.5030    -2.5900    -0.0420 h4         1 7ZC       0.165000
     23 H8          -3.1760    -0.2490     1.3910 h1         1 7ZC       0.033700
     24 H9          -1.9680     1.0240     1.4200 h1         1 7ZC       0.033700
     25 H11         -3.8920     2.5420     0.7680 h1         1 7ZC       0.030033
     26 H12         -4.7920     2.1090    -0.6930 h1         1 7ZC       0.030033
     27 H13         -4.9150     1.0980     0.7470 h1         1 7ZC       0.030033
     28 H14         -1.4930     0.9970    -1.6250 h1         1 7ZC       0.030033
     29 H15         -2.8370     2.0620    -2.0280 h1         1 7ZC       0.030033
     30 H16         -1.7640     2.4700    -0.6800 h1         1 7ZC       0.030033
     31 H17          0.4110     1.5710     0.7700 ha         1 7ZC       0.146000
@<TRIPOS>BOND
     1     1     2 1   
     2     1    16 1   
     3     1    17 1   
     4     1    18 1   
     5     2     3 1   
     6     3     4 ar  
     7     3    15 ar  
     8     4     5 ar  
     9     4    19 1   
    10     5     6 ar  
    11     5    20 1   
    12     6     7 1   
    13     6    14 ar  
    14     7     8 1   
    15     7    21 1   
    16     8     9 2   
    17     8    22 1   
    18     9    10 1   
    19     9    14 1   
    20    10    11 1   
    21    10    23 1   
    22    10    24 1   
    23    11    12 1   
    24    11    13 1   
    25    12    25 1   
    26    12    26 1   
    27    12    27 1   
    28    13    28 1   
    29    13    29 1   
    30    13    30 1   
    31    14    15 ar  
    32    15    31 1   
@<TRIPOS>SUBSTRUCTURE
     1 7ZC         1 TEMP              0 ****  ****    0 ROOT
