@<TRIPOS>MOLECULE
7ZE
   19    20     1     0     0
SMALL
No Charge or Current Charge


@<TRIPOS>ATOM
      1 O1          -2.2850     1.3960     0.9190 o          1 7ZE      -0.394000
      2 N2          -2.1980     0.5420     0.0270 no         1 7ZE       0.690200
      3 O3          -3.1350     0.2320    -0.7200 o          1 7ZE      -0.394000
      4 C4          -0.9920    -0.3360     0.0200 ca         1 7ZE      -0.153200
      5 C5          -1.1910    -1.7320     0.0530 ca         1 7ZE      -0.035000
      6 C6          -0.0930    -2.6030     0.0750 ca         1 7ZE      -0.121000
      7 C7           1.2120    -2.0890     0.0610 ca         1 7ZE      -0.038000
      8 C8           1.4480    -0.7020     0.0140 ca         1 7ZE       0.259000
      9 N9           2.7300    -0.2590    -0.0110 nb         1 7ZE      -0.657000
     10 C10          2.9590     1.0710    -0.0720 ca         1 7ZE       0.360900
     11 C11          1.9250     2.0150    -0.1180 ca         1 7ZE      -0.152000
     12 C12          0.5930     1.5750    -0.0910 ca         1 7ZE      -0.053000
     13 C13          0.3330     0.1860    -0.0120 ca         1 7ZE      -0.040000
     14 H1          -2.1990    -2.1460     0.0750 ha         1 7ZE       0.148000
     15 H2          -0.2530    -3.6790     0.1080 ha         1 7ZE       0.133000
     16 H3           2.0570    -2.7720     0.0800 ha         1 7ZE       0.142000
     17 H4           4.0010     1.3870    -0.0910 h4         1 7ZE       0.027100
     18 H5           2.1600     3.0740    -0.1770 ha         1 7ZE       0.133000
     19 H6          -0.2030     2.3120    -0.1410 ha         1 7ZE       0.146000
@<TRIPOS>BOND
     1     1     2 1   
     2     2     3 1   
     3     2     4 1   
     4     4     5 ar  
     5     4    13 ar  
     6     5     6 ar  
     7     5    14 1   
     8     6     7 ar  
     9     6    15 1   
    10     7     8 ar  
    11     7    16 1   
    12     8     9 ar  
    13     8    13 ar  
    14     9    10 ar  
    15    10    11 ar  
    16    10    17 1   
    17    11    12 ar  
    18    11    18 1   
    19    12    13 ar  
    20    12    19 1   
@<TRIPOS>SUBSTRUCTURE
     1 7ZE         1 TEMP              0 ****  ****    0 ROOT
