@<TRIPOS>MOLECULE
7ZE
   19    20     1     0     0
SMALL
abcg2


@<TRIPOS>ATOM
      1 O1          -2.1560     1.4750     0.7290 o          1 7ZE      -0.394000
      2 N2          -2.1840     0.4690     0.0590 no         1 7ZE       0.690200
      3 O3          -3.1500     0.0930    -0.5610 o          1 7ZE      -0.394000
      4 C4          -0.9900    -0.3610     0.0220 ca         1 7ZE      -0.153200
      5 C5          -1.1860    -1.7150     0.0260 ca         1 7ZE      -0.035000
      6 C6          -0.0800    -2.5800     0.0570 ca         1 7ZE      -0.121000
      7 C7           1.1870    -2.0710     0.0580 ca         1 7ZE      -0.038000
      8 C8           1.4080    -0.6750     0.0230 ca         1 7ZE       0.259000
      9 N9           2.6930    -0.2530    -0.0030 nb         1 7ZE      -0.657000
     10 C10          2.9270     1.0280    -0.0600 ca         1 7ZE       0.360900
     11 C11          1.9090     2.0000    -0.1100 ca         1 7ZE      -0.152000
     12 C12          0.6040     1.6030    -0.0730 ca         1 7ZE      -0.053000
     13 C13          0.3050     0.2220     0.0090 ca         1 7ZE      -0.040000
     14 H1          -2.1850    -2.1270     0.0330 ha         1 7ZE       0.148000
     15 H2          -0.2440    -3.6470     0.0820 ha         1 7ZE       0.133000
     16 H3           2.0510    -2.7220     0.0810 ha         1 7ZE       0.142000
     17 H4           3.9670     1.3370    -0.0790 h4         1 7ZE       0.027100
     18 H5           2.1660     3.0480    -0.1770 ha         1 7ZE       0.133000
     19 H6          -0.1740     2.3480    -0.1180 ha         1 7ZE       0.146000
@<TRIPOS>BOND
     1     1     2 1   
     2     2     3 1   
     3     2     4 1   
     4     4     5 ar  
     5     4    13 ar  
     6     5     6 ar  
     7     5    14 1   
     8     6     7 ar  
     9     6    15 1   
    10     7     8 ar  
    11     7    16 1   
    12     8     9 ar  
    13     8    13 ar  
    14     9    10 ar  
    15    10    11 ar  
    16    10    17 1   
    17    11    12 ar  
    18    11    18 1   
    19    12    13 ar  
    20    12    19 1   
@<TRIPOS>SUBSTRUCTURE
     1 7ZE         1 TEMP              0 ****  ****    0 ROOT
