@<TRIPOS>MOLECULE
7ZF
   23    24     1     0     0
SMALL
No Charge or Current Charge


@<TRIPOS>ATOM
      1 C4           1.9750    -0.9130    -0.5030 ca         1 7ZF      -0.149000
      2 C5           2.5610     1.2800     0.3540 ca         1 7ZF      -0.149000
      3 C6          -2.2680    -1.6930     0.3250 ca         1 7ZF       0.206900
      4 C7           1.5780     0.3690    -0.0700 ca         1 7ZF       0.314000
      5 C8          -3.2180     0.3110    -0.0840 ca         1 7ZF       0.434900
      6 N12         -2.0450     0.9420    -0.1820 nb         1 7ZF      -0.360000
      7 C1           4.3040    -0.3700    -0.0460 ca         1 7ZF      -0.137000
      8 C2           3.3320    -1.2830    -0.4870 ca         1 7ZF      -0.084500
      9 C3           3.9190     0.9140     0.3720 ca         1 7ZF      -0.084500
     10 C9          -0.9800     0.1440    -0.0170 ca         1 7ZF       0.436900
     11 N10         -3.4090    -0.9900     0.1650 nb         1 7ZF      -0.309000
     12 N11         -1.0250    -1.1750     0.2490 nb         1 7ZF      -0.304000
     13 N14          0.2420     0.7860    -0.0820 nu         1 7ZF      -0.923900
     14 H1           1.2430    -1.6230    -0.8700 ha         1 7ZF       0.131000
     15 H2           2.2740     2.2760     0.6800 ha         1 7ZF       0.131000
     16 H3          -2.3580    -2.7570     0.5340 h5         1 7ZF       0.047100
     17 H4           5.3540    -0.6550    -0.0350 ha         1 7ZF       0.115000
     18 H5           3.6300    -2.2740    -0.8230 ha         1 7ZF       0.112500
     19 H6           4.6710     1.6250     0.7090 ha         1 7ZF       0.112500
     20 H7          -5.2110     0.6840     0.0670 hn         1 7ZF       0.508500
     21 H8          -4.2220     2.0780    -0.1880 hn         1 7ZF       0.508500
     22 H9           0.1310     1.7990    -0.0660 hn         1 7ZF       0.509000
     23 N13         -4.3220     1.0670    -0.2450 nv         1 7ZF      -1.066900
@<TRIPOS>BOND
     1     1     4 ar  
     2     1     8 ar  
     3     1    14 1   
     4     2     4 ar  
     5     2     9 ar  
     6     2    15 1   
     7     3    11 ar  
     8     3    12 ar  
     9     3    16 1   
    10     4    13 1   
    11     5     6 ar  
    12     5    11 ar  
    13     5    23 1   
    14     6    10 ar  
    15     7     8 ar  
    16     7     9 ar  
    17     7    17 1   
    18     8    18 1   
    19     9    19 1   
    20    10    12 ar  
    21    10    13 1   
    22    13    22 1   
    23    20    23 1   
    24    21    23 1   
@<TRIPOS>SUBSTRUCTURE
     1 7ZF         1 TEMP              0 ****  ****    0 ROOT
