@<TRIPOS>MOLECULE
7ZF
   23    24     1     0     0
SMALL
abcg2


@<TRIPOS>ATOM
      1 C4           1.9350    -0.9910    -0.1710 ca         1 7ZF      -0.149000
      2 C5           2.5560     1.3120     0.1480 ca         1 7ZF      -0.149000
      3 C6          -2.2160    -1.6660    -0.1320 ca         1 7ZF       0.206900
      4 C7           1.5580     0.3420     0.0030 ca         1 7ZF       0.314000
      5 C8          -3.1880     0.3370     0.0270 ca         1 7ZF       0.434900
      6 N12         -2.0110     0.9570     0.0650 nb         1 7ZF      -0.360000
      7 C1           4.2710    -0.3660    -0.0490 ca         1 7ZF      -0.137000
      8 C2           3.2830    -1.3270    -0.1950 ca         1 7ZF      -0.084500
      9 C3           3.8940     0.9600     0.1230 ca         1 7ZF      -0.084500
     10 C9          -0.9470     0.1620    -0.0040 ca         1 7ZF       0.436900
     11 N10         -3.3450    -0.9990    -0.0720 nb         1 7ZF      -0.309000
     12 N11         -0.9890    -1.1680    -0.1040 nb         1 7ZF      -0.304000
     13 N14          0.2420     0.8060     0.0370 nu         1 7ZF      -0.923900
     14 H1           1.1880    -1.7580    -0.2840 ha         1 7ZF       0.131000
     15 H2           2.2800     2.3510     0.2850 ha         1 7ZF       0.131000
     16 H3          -2.2920    -2.7460    -0.2130 h5         1 7ZF       0.047100
     17 H4           5.3170    -0.6420    -0.0710 ha         1 7ZF       0.115000
     18 H5           3.5550    -2.3660    -0.3320 ha         1 7ZF       0.112500
     19 H6           4.6450     1.7310     0.2390 ha         1 7ZF       0.112500
     20 H7          -5.1980     0.6470     0.0730 hn         1 7ZF       0.508500
     21 H8          -4.2330     2.0790     0.1690 hn         1 7ZF       0.508500
     22 H9           0.1440     1.8080     0.1240 hn         1 7ZF       0.509000
     23 N13         -4.2920     1.0790     0.0920 nv         1 7ZF      -1.066900
@<TRIPOS>BOND
     1     1     4 ar  
     2     1     8 ar  
     3     1    14 1   
     4     2     4 ar  
     5     2     9 ar  
     6     2    15 1   
     7     3    11 ar  
     8     3    12 ar  
     9     3    16 1   
    10     4    13 1   
    11     5     6 ar  
    12     5    11 ar  
    13     5    23 1   
    14     6    10 ar  
    15     7     8 ar  
    16     7     9 ar  
    17     7    17 1   
    18     8    18 1   
    19     9    19 1   
    20    10    12 ar  
    21    10    13 1   
    22    13    22 1   
    23    20    23 1   
    24    21    23 1   
@<TRIPOS>SUBSTRUCTURE
     1 7ZF         1 TEMP              0 ****  ****    0 ROOT
