@<TRIPOS>MOLECULE
7ZG
   34    36     1     0     0
SMALL
abcg2


@<TRIPOS>ATOM
      1 N1           4.4030    -1.4220    -0.6670 na         1 7ZG      -0.347600
      2 N3           5.6460    -0.2720     0.7840 nc         1 7ZG      -0.633100
      3 C4           3.5920    -0.4120    -0.2080 ca         1 7ZG      -0.059200
      4 C5           4.3950     0.2950     0.7010 ca         1 7ZG       0.079400
      5 C6          -0.5710     0.9510    -0.7340 c          1 7ZG       0.606100
      6 C7           2.2820    -0.0800    -0.5070 ca         1 7ZG      -0.132000
      7 C13         -1.8400     1.7920    -0.7260 c3         1 7ZG      -0.115100
      8 C15         -3.6500     0.5330     0.4580 ca         1 7ZG      -0.096000
      9 C17         -4.7760    -0.2740     0.4410 ca         1 7ZG       0.121000
     10 C20         -3.6360     0.5130    -1.9410 ca         1 7ZG      -0.083000
     11 C21         -5.3480    -0.6950    -0.7490 ca         1 7ZG      -0.097000
     12 C2           5.6060    -1.2880    -0.0400 cd         1 7ZG       0.625700
     13 C9           1.7560     1.0290     0.1560 ca         1 7ZG      -0.022000
     14 O10         -0.5020    -0.0990    -1.3480 o          1 7ZG      -0.577100
     15 N11          6.6090    -2.1800    -0.2360 nv         1 7ZG      -1.008200
     16 C12          3.8530     1.4000     1.3460 ca         1 7ZG      -0.038000
     17 C14         -3.0720     0.9340    -0.7420 ca         1 7ZG      -0.065300
     18 C16          2.5420     1.7520     1.0680 ca         1 7ZG      -0.177000
     19 C19         -4.7660    -0.2920    -1.9420 ca         1 7ZG      -0.101000
     20 H1           4.1470    -2.1520    -1.3130 hn         1 7ZG       0.357000
     21 H3           1.7040    -0.6550    -1.2120 ha         1 7ZG       0.151000
     22 H4          -1.8580     2.4670     0.1300 hc         1 7ZG       0.066700
     23 H5          -1.8100     2.4240    -1.6190 hc         1 7ZG       0.066700
     24 H6          -3.2240     0.8520     1.4010 ha         1 7ZG       0.126000
     25 H7          -3.1990     0.8240    -2.8810 ha         1 7ZG       0.120000
     26 H8          -6.2300    -1.3210    -0.7470 ha         1 7ZG       0.130000
     27 H9           0.2360     2.3590     0.4490 hn         1 7ZG       0.149000
     28 H10          6.6410    -2.6520    -1.1250 hn         1 7ZG       0.473500
     29 H11          7.5130    -1.8800     0.0890 hn         1 7ZG       0.473500
     30 H12          4.4350     1.9760     2.0540 ha         1 7ZG       0.129000
     31 H13          2.1110     2.6100     1.5700 ha         1 7ZG       0.108000
     32 H14         -5.2040    -0.6090    -2.8800 ha         1 7ZG       0.119000
     33 N8           0.4450     1.4980    -0.0320 ns         1 7ZG      -0.143000
     34 CL1         -5.4870    -0.7620     1.9470 cl         1 7ZG      -0.205000
@<TRIPOS>BOND
     1     1     3 1   
     2     1    12 1   
     3     1    20 1   
     4     2     4 1   
     5     2    12 2   
     6     3     4 ar  
     7     3     6 ar  
     8     4    16 ar  
     9     5     7 1   
    10     5    14 2   
    11     5    33 1   
    12     6    13 ar  
    13     6    21 1   
    14     7    17 1   
    15     7    22 1   
    16     7    23 1   
    17     8     9 ar  
    18     8    17 ar  
    19     8    24 1   
    20     9    11 ar  
    21     9    34 1   
    22    10    17 ar  
    23    10    19 ar  
    24    10    25 1   
    25    11    19 ar  
    26    11    26 1   
    27    12    15 1   
    28    13    18 ar  
    29    13    33 1   
    30    15    28 1   
    31    15    29 1   
    32    16    18 ar  
    33    16    30 1   
    34    18    31 1   
    35    19    32 1   
    36    27    33 1   
@<TRIPOS>SUBSTRUCTURE
     1 7ZG         1 TEMP              0 ****  ****    0 ROOT
