@<TRIPOS>MOLECULE
7ZG
   34    36     1     0     0
SMALL
No Charge or Current Charge


@<TRIPOS>ATOM
      1 N1           4.4800    -1.2480    -0.8890 na         1 7ZG      -0.347600
      2 N3           5.3520    -0.6040     1.1510 nc         1 7ZG      -0.633100
      3 C4           3.5850    -0.4120    -0.2780 ca         1 7ZG      -0.059200
      4 C5           4.1070    -0.0330     0.9300 ca         1 7ZG       0.079400
      5 C6          -0.4950     1.2350    -1.3830 c          1 7ZG       0.606100
      6 C7           2.3380     0.0270    -0.7400 ca         1 7ZG      -0.132000
      7 C13         -1.8270     1.9940    -1.3250 c3         1 7ZG      -0.115100
      8 C15         -3.3090     0.8800     0.4200 ca         1 7ZG      -0.096000
      9 C17         -4.3550     0.0120     0.7760 ca         1 7ZG       0.121000
     10 C20         -3.6800     0.3550    -1.9270 ca         1 7ZG      -0.083000
     11 C21         -5.0640    -0.6850    -0.2150 ca         1 7ZG      -0.097000
     12 C2           5.5050    -1.3080     0.0370 cd         1 7ZG       0.625700
     13 C9           1.5900     0.9010     0.0880 ca         1 7ZG      -0.022000
     14 O10         -0.2040     0.5260    -2.3410 o          1 7ZG      -0.577100
     15 N11          6.6030    -2.0350    -0.1770 nv         1 7ZG      -1.008200
     16 C12          3.3890     0.8310     1.7680 ca         1 7ZG      -0.038000
     17 C14         -2.9660     1.0570    -0.9360 ca         1 7ZG      -0.065300
     18 C16          2.1270     1.2950     1.3380 ca         1 7ZG      -0.177000
     19 C19         -4.7260    -0.5130    -1.5680 ca         1 7ZG      -0.101000
     20 H1           4.4160    -1.7270    -1.7740 hn         1 7ZG       0.357000
     21 H3           1.9780    -0.3090    -1.7070 ha         1 7ZG       0.151000
     22 H4          -1.7610     2.8030    -0.5870 hc         1 7ZG       0.066700
     23 H5          -2.0280     2.4250    -2.3130 hc         1 7ZG       0.066700
     24 H6          -2.7690     1.4120     1.1980 ha         1 7ZG       0.126000
     25 H7          -3.4230     0.4790    -2.9770 ha         1 7ZG       0.120000
     26 H8          -5.8730    -1.3560     0.0650 ha         1 7ZG       0.130000
     27 H9          -0.0850     2.0290     0.4330 hn         1 7ZG       0.149000
     28 H10          6.8260    -2.2810    -1.1350 hn         1 7ZG       0.473500
     29 H11          7.3880    -1.8510     0.4360 hn         1 7ZG       0.473500
     30 H12          3.7980     1.1350     2.7280 ha         1 7ZG       0.129000
     31 H13          1.5630     1.9660     1.9830 ha         1 7ZG       0.108000
     32 H14         -5.2730    -1.0530    -2.3390 ha         1 7ZG       0.119000
     33 N8           0.3120     1.4160    -0.2660 ns         1 7ZG      -0.143000
     34 Cl1         -4.7750    -0.2030     2.4710 cl         1 7ZG      -0.205000
@<TRIPOS>BOND
     1     1     3 1   
     2     1    12 1   
     3     1    20 1   
     4     2     4 1   
     5     2    12 2   
     6     3     4 ar  
     7     3     6 ar  
     8     4    16 ar  
     9     5     7 1   
    10     5    14 2   
    11     5    33 1   
    12     6    13 ar  
    13     6    21 1   
    14     7    17 1   
    15     7    22 1   
    16     7    23 1   
    17     8     9 ar  
    18     8    17 ar  
    19     8    24 1   
    20     9    11 ar  
    21     9    34 1   
    22    10    17 ar  
    23    10    19 ar  
    24    10    25 1   
    25    11    19 ar  
    26    11    26 1   
    27    12    15 1   
    28    13    18 ar  
    29    13    33 1   
    30    15    28 1   
    31    15    29 1   
    32    16    18 ar  
    33    16    30 1   
    34    18    31 1   
    35    19    32 1   
    36    27    33 1   
@<TRIPOS>SUBSTRUCTURE
     1 7ZG         1 TEMP              0 ****  ****    0 ROOT
