@<TRIPOS>MOLECULE
7ZH
   79    83     1     0     0
SMALL
No Charge or Current Charge


@<TRIPOS>ATOM
      1 C1          31.3930    32.0160   185.1480 ca         1 7ZH      -0.116600
      2 C10         30.3280    30.3360   181.9880 ca         1 7ZH      -0.079000
      3 C11         32.6570    32.3770   185.9010 c          1 7ZH       0.604700
      4 C12         26.3660    29.4590   179.9780 c          1 7ZH       0.653100
      5 C13         24.4720    29.0540   178.3680 c3         1 7ZH       0.113000
      6 C14         24.5700    29.9480   177.1100 c3         1 7ZH      -0.102400
      7 C15         23.4390    31.0050   176.9520 c3         1 7ZH      -0.092400
      8 C16         23.1610    31.9010   178.1790 c3         1 7ZH       0.234800
      9 C17         24.4960    33.1250   179.8020 c2         1 7ZH       0.857100
     10 C18         35.0700    32.3660   185.8590 c3         1 7ZH       0.153900
     11 C19         26.1290    34.7380   180.7220 c3         1 7ZH       0.198800
     12 C2          30.1320    32.3730   185.6740 ca         1 7ZH      -0.155000
     13 C20         27.4490    35.4470   180.2880 c5         1 7ZH       0.156300
     14 C21         28.6230    34.4680   179.9540 c5         1 7ZH       0.150300
     15 C22         29.1270    34.1460   181.3850 c5         1 7ZH       0.089300
     16 C23         29.0300    35.5610   182.0470 c5         1 7ZH       0.282300
     17 C24         27.6680    35.2820   184.1750 cc         1 7ZH       0.418700
     18 C25         29.1980    35.6470   185.6460 ca         1 7ZH      -0.101600
     19 C26         29.9710    35.8220   186.8130 ca         1 7ZH       0.458900
     20 C27         31.7870    36.2730   185.4950 ca         1 7ZH       0.184900
     21 C28         29.8120    35.8270   184.4320 ca         1 7ZH       0.132500
     22 C3          28.9480    32.0590   184.9900 ca         1 7ZH       0.131100
     23 C4          29.0030    31.3800   183.7510 ca         1 7ZH      -0.013000
     24 C5          30.2580    31.0060   183.2240 ca         1 7ZH      -0.076000
     25 C6          31.4410    31.3210   183.9190 ca         1 7ZH      -0.068000
     26 C7          27.8320    31.0940   183.0150 ca         1 7ZH      -0.182000
     27 C8          27.9000    30.4430   181.7710 ca         1 7ZH       0.014000
     28 C9          29.1570    30.0600   181.2630 ca         1 7ZH      -0.116000
     29 N1          26.6880    30.2520   181.0610 ns         1 7ZH      -0.172000
     30 N10         31.1180    36.1380   184.3250 nb         1 7ZH      -0.223000
     31 N2          25.0850    29.6860   179.5410 ns         1 7ZH      -0.509900
     32 N3          24.3810    32.5900   178.6090 nu         1 7ZH      -0.929400
     33 N4          25.5860    33.8480   179.6740 nu         1 7ZH      -0.961400
     34 N5          24.4550    32.3450   180.7680 n2         1 7ZH      -0.967100
     35 N6          28.8430    35.6090   183.4940 na         1 7ZH      -0.289300
     36 N7          27.8510    35.2940   185.5120 nd         1 7ZH      -0.589100
     37 N8          29.4530    35.6820   188.0620 nv         1 7ZH      -1.060900
     38 N9          31.2750    36.1340   186.7420 nb         1 7ZH      -0.290000
     39 O1          27.7550    32.4430   185.5350 oh         1 7ZH      -0.550100
     40 O2          27.1100    28.6390   179.4580 o          1 7ZH      -0.635100
     41 O3          33.8120    32.0570   185.2310 os         1 7ZH      -0.441100
     42 O4          32.6450    32.9070   187.0050 o          1 7ZH      -0.485000
     43 O5          29.6810    35.0740   179.1970 oh         1 7ZH      -0.715000
     44 O6          30.4660    33.6140   181.3480 oh         1 7ZH      -0.703000
     45 O7          27.9490    36.2630   181.3840 os         1 7ZH      -0.448000
     46 H5          31.2920    30.0440   181.5760 ha         1 7ZH       0.121000
     47 H9          23.4200    28.8240   178.5860 h1         1 7ZH       0.058200
     48 H10         24.9820    28.1020   178.1710 h1         1 7ZH       0.058200
     49 H11         24.5360    29.2950   176.2290 hc         1 7ZH       0.053200
     50 H12         25.5530    30.4360   177.0810 hc         1 7ZH       0.053200
     51 H13         23.6750    31.6450   176.0930 hc         1 7ZH       0.043700
     52 H14         22.5080    30.4840   176.6980 hc         1 7ZH       0.043700
     53 H16         22.3840    32.6350   177.9270 h1         1 7ZH       0.053200
     54 H15         22.7650    31.2740   178.9900 h1         1 7ZH       0.053200
     55 H22         35.9030    32.0580   185.2160 h1         1 7ZH       0.049367
     56 H21         35.1620    33.4440   186.0420 h1         1 7ZH       0.049367
     57 H20         35.1690    31.8400   186.8180 h1         1 7ZH       0.049367
     58 H24         25.3870    35.5100   180.9700 h1         1 7ZH       0.053200
     59 H23         26.3190    34.1620   181.6360 h1         1 7ZH       0.053200
     60 H1          30.0730    32.8960   186.6260 ha         1 7ZH       0.139000
     61 H25         27.2210    36.0960   179.4320 h1         1 7ZH       0.089700
     62 H26         28.2620    33.5600   179.4490 h1         1 7ZH       0.077700
     63 H28         28.4440    33.4430   181.8780 h1         1 7ZH       0.062700
     64 H30         29.9630    36.1050   181.8470 h2         1 7ZH       0.119700
     65 H31         26.7450    35.0450   183.6620 h5         1 7ZH       0.071800
     66 H34         32.8440    36.5240   185.4270 h5         1 7ZH       0.048100
     67 H2          32.3990    31.0250   183.4940 ha         1 7ZH       0.134000
     68 H3          26.8600    31.3890   183.4020 ha         1 7ZH       0.129000
     69 H4          29.2460    29.5700   180.2970 ha         1 7ZH       0.149000
     70 H7          25.9300    30.8420   181.3770 hn         1 7ZH       0.158000
     71 H8          24.5940    30.4570   179.9940 hn         1 7ZH       0.343500
     72 H17         25.2340    32.0980   178.3990 hn         1 7ZH       0.484000
     73 H18         25.6120    34.2080   178.7280 hn         1 7ZH       0.477000
     74 H19         25.0340    32.7980   181.4760 hn         1 7ZH       0.387400
     75 H33         30.0900    35.5460   188.8410 hn         1 7ZH       0.508000
     76 H32         28.5160    35.2990   188.1470 hn         1 7ZH       0.508000
     77 H6          27.8430    33.3870   185.8160 ho         1 7ZH       0.488000
     78 H27         30.4940    34.6740   179.5970 ho         1 7ZH       0.534000
     79 H29         30.5450    32.9700   182.0920 ho         1 7ZH       0.534000
@<TRIPOS>BOND
     1     1     3 1   
     2     1    12 ar  
     3     1    25 ar  
     4     2    24 ar  
     5     2    28 ar  
     6     2    46 1   
     7     3    41 1   
     8     3    42 2   
     9     4    29 1   
    10     4    31 1   
    11     4    40 2   
    12     5     6 1   
    13     5    31 1   
    14     5    47 1   
    15     5    48 1   
    16     6     7 1   
    17     6    49 1   
    18     6    50 1   
    19     7     8 1   
    20     7    51 1   
    21     7    52 1   
    22     8    32 1   
    23     8    53 1   
    24     8    54 1   
    25     9    32 1   
    26     9    33 1   
    27     9    34 2   
    28    10    41 1   
    29    10    55 1   
    30    10    56 1   
    31    10    57 1   
    32    11    13 1   
    33    11    33 1   
    34    11    58 1   
    35    11    59 1   
    36    12    22 ar  
    37    12    60 1   
    38    13    14 1   
    39    13    45 1   
    40    13    61 1   
    41    14    15 1   
    42    14    43 1   
    43    14    62 1   
    44    15    16 1   
    45    15    44 1   
    46    15    63 1   
    47    16    35 1   
    48    16    45 1   
    49    16    64 1   
    50    17    35 1   
    51    17    36 2   
    52    17    65 1   
    53    18    19 ar  
    54    18    21 ar  
    55    18    36 1   
    56    19    37 1   
    57    19    38 ar  
    58    20    30 ar  
    59    20    38 ar  
    60    20    66 1   
    61    21    30 ar  
    62    21    35 1   
    63    22    23 ar  
    64    22    39 1   
    65    23    24 ar  
    66    23    26 ar  
    67    24    25 ar  
    68    25    67 1   
    69    26    27 ar  
    70    26    68 1   
    71    27    28 ar  
    72    27    29 1   
    73    28    69 1   
    74    29    70 1   
    75    31    71 1   
    76    32    72 1   
    77    33    73 1   
    78    34    74 1   
    79    37    75 1   
    80    37    76 1   
    81    39    77 1   
    82    43    78 1   
    83    44    79 1   
@<TRIPOS>SUBSTRUCTURE
     1 7ZH         1 TEMP              0 ****  ****    0 ROOT
