@<TRIPOS>MOLECULE
7ZH
   79    83     1     0     0
SMALL
bcc


@<TRIPOS>ATOM
      1 C1          31.2370    32.0020   185.0930 ca         1 7ZH      -0.116600
      2 C10         30.0860    30.5460   181.8790 ca         1 7ZH      -0.097000
      3 C11         32.4640    32.3380   185.8550 c          1 7ZH       0.653700
      4 C12         26.1690    29.5430   180.1110 c          1 7ZH       0.787100
      5 C13         24.4050    28.9390   178.5390 c3         1 7ZH       0.113000
      6 C14         24.6890    29.6620   177.2180 c3         1 7ZH      -0.102400
      7 C15         23.6410    30.6910   176.8030 c3         1 7ZH      -0.092400
      8 C16         23.3320    31.7850   177.8170 c3         1 7ZH       0.234800
      9 C17         24.7620    32.9840   179.4470 c2         1 7ZH       0.857100
     10 C18         34.8150    32.3820   185.8210 c3         1 7ZH       0.130700
     11 C19         26.2000    34.4950   180.7560 c3         1 7ZH       0.198800
     12 C2          29.9930    32.2800   185.7050 ca         1 7ZH      -0.173000
     13 C20         27.4530    35.3300   180.5100 c5         1 7ZH       0.133100
     14 C21         28.6860    34.5050   180.1540 c5         1 7ZH       0.127100
     15 C22         29.3130    34.2910   181.5280 c5         1 7ZH       0.066100
     16 C23         29.0230    35.6420   182.1950 c5         1 7ZH       0.229800
     17 C24         27.9220    35.1110   184.4000 cc         1 7ZH       0.418700
     18 C25         29.4760    35.5660   185.7620 ca         1 7ZH      -0.232200
     19 C26         30.3580    35.7550   186.8410 ca         1 7ZH       0.787200
     20 C27         31.9180    36.4790   185.3140 ca         1 7ZH       0.710900
     21 C28         29.9720    35.8660   184.5040 ca         1 7ZH       0.460800
     22 C3          28.8170    31.9910   185.0660 ca         1 7ZH       0.131100
     23 C4          28.8290    31.4090   183.7660 ca         1 7ZH      -0.013000
     24 C5          30.0810    31.1140   183.1730 ca         1 7ZH      -0.076000
     25 C6          31.2800    31.4210   183.8500 ca         1 7ZH      -0.086000
     26 C7          27.6450    31.1380   183.0580 ca         1 7ZH      -0.200000
     27 C8          27.6770    30.5900   181.7910 ca         1 7ZH       0.106600
     28 C9          28.9310    30.2860   181.2000 ca         1 7ZH      -0.134000
     29 N1          26.4730    30.4250   181.1280 ns         1 7ZH      -0.498100
     30 N10         31.1890    36.3250   184.2210 nb         1 7ZH      -0.749000
     31 N2          24.8780    29.6290   179.7190 ns         1 7ZH      -0.576900
     32 N3          24.5010    32.5490   178.1860 nu         1 7ZH      -0.874200
     33 N4          25.7470    33.9370   179.5060 nu         1 7ZH      -0.906200
     34 N5          24.1490    32.4630   180.4590 n2         1 7ZH      -0.967100
     35 N6          28.9560    35.5740   183.6380 na         1 7ZH      -0.260000
     36 N7          28.1910    35.0970   185.6750 nd         1 7ZH      -0.589100
     37 N8          30.0240    35.4770   188.1020 nv         1 7ZH      -0.950500
     38 N9          31.5800    36.2260   186.5750 nb         1 7ZH      -0.816000
     39 O1          27.6120    32.2340   185.6180 oh         1 7ZH      -0.511100
     40 O2          26.9800    28.7520   179.6470 o          1 7ZH      -0.635100
     41 O3          33.5750    32.0990   185.1740 os         1 7ZH      -0.417900
     42 O4          32.4550    32.7820   186.9780 o          1 7ZH      -0.534000
     43 O5          29.5120    35.2870   179.3280 oh         1 7ZH      -0.592800
     44 O6          30.6680    33.9810   181.4300 oh         1 7ZH      -0.580800
     45 O7          27.7800    36.0470   181.7030 os         1 7ZH      -0.401600
     46 H5          31.0380    30.3280   181.4110 ha         1 7ZH       0.139000
     47 H9          23.3310    28.7790   178.6550 h1         1 7ZH       0.058200
     48 H10         24.8600    27.9490   178.5190 h1         1 7ZH       0.058200
     49 H11         24.7480    28.9130   176.4240 hc         1 7ZH       0.053200
     50 H12         25.6790    30.1220   177.2670 hc         1 7ZH       0.053200
     51 H13         23.9540    31.1510   175.8610 hc         1 7ZH       0.043700
     52 H14         22.6990    30.1790   176.5850 hc         1 7ZH       0.043700
     53 H16         22.5630    32.4430   177.3950 h1         1 7ZH       0.053200
     54 H15         22.9000    31.3610   178.7210 h1         1 7ZH       0.053200
     55 H22         35.5890    32.1310   185.1020 h1         1 7ZH       0.049367
     56 H21         34.8950    33.4360   186.0870 h1         1 7ZH       0.049367
     57 H20         34.9430    31.7750   186.7180 h1         1 7ZH       0.049367
     58 H24         25.4430    35.1300   181.2320 h1         1 7ZH       0.053200
     59 H23         26.4270    33.6850   181.4540 h1         1 7ZH       0.053200
     60 H1          29.9730    32.7210   186.6930 ha         1 7ZH       0.157000
     61 H25         27.2470    36.0590   179.7180 h1         1 7ZH       0.089700
     62 H26         28.4130    33.5560   179.6780 h1         1 7ZH       0.077700
     63 H28         28.7510    33.5080   182.0550 h1         1 7ZH       0.062700
     64 H30         29.8140    36.3610   181.9550 h2         1 7ZH       0.119700
     65 H31         26.9850    34.8010   183.9640 h5         1 7ZH       0.071800
     66 H34         32.9230    36.8580   185.1670 h5         1 7ZH       0.048100
     67 H2          32.2200    31.1880   183.3670 ha         1 7ZH       0.152000
     68 H3          26.6880    31.3710   183.5090 ha         1 7ZH       0.147000
     69 H4          28.9770    29.8710   180.2060 ha         1 7ZH       0.167000
     70 H7          25.7040    30.9750   181.4840 hn         1 7ZH       0.324500
     71 H8          24.3560    30.4430   180.0400 hn         1 7ZH       0.343500
     72 H17         25.0230    32.9610   177.4290 hn         1 7ZH       0.428800
     73 H18         25.8200    34.5480   178.7050 hn         1 7ZH       0.421800
     74 H19         24.3780    32.9350   181.3250 hn         1 7ZH       0.387400
     75 H33         30.6840    35.6250   188.8460 hn         1 7ZH       0.452800
     76 H32         29.1100    35.1330   188.3370 hn         1 7ZH       0.452800
     77 H6          27.6620    33.0350   186.1630 ho         1 7ZH       0.449000
     78 H27         30.3630    34.8430   179.2390 ho         1 7ZH       0.435000
     79 H29         30.9700    33.5960   182.2600 ho         1 7ZH       0.435000
@<TRIPOS>BOND
     1     1     3 1   
     2     1    12 ar  
     3     1    25 ar  
     4     2    24 ar  
     5     2    28 ar  
     6     2    46 1   
     7     3    41 1   
     8     3    42 2   
     9     4    29 1   
    10     4    31 1   
    11     4    40 2   
    12     5     6 1   
    13     5    31 1   
    14     5    47 1   
    15     5    48 1   
    16     6     7 1   
    17     6    49 1   
    18     6    50 1   
    19     7     8 1   
    20     7    51 1   
    21     7    52 1   
    22     8    32 1   
    23     8    53 1   
    24     8    54 1   
    25     9    32 1   
    26     9    33 1   
    27     9    34 2   
    28    10    41 1   
    29    10    55 1   
    30    10    56 1   
    31    10    57 1   
    32    11    13 1   
    33    11    33 1   
    34    11    58 1   
    35    11    59 1   
    36    12    22 ar  
    37    12    60 1   
    38    13    14 1   
    39    13    45 1   
    40    13    61 1   
    41    14    15 1   
    42    14    43 1   
    43    14    62 1   
    44    15    16 1   
    45    15    44 1   
    46    15    63 1   
    47    16    35 1   
    48    16    45 1   
    49    16    64 1   
    50    17    35 1   
    51    17    36 2   
    52    17    65 1   
    53    18    19 ar  
    54    18    21 ar  
    55    18    36 1   
    56    19    37 1   
    57    19    38 ar  
    58    20    30 ar  
    59    20    38 ar  
    60    20    66 1   
    61    21    30 ar  
    62    21    35 1   
    63    22    23 ar  
    64    22    39 1   
    65    23    24 ar  
    66    23    26 ar  
    67    24    25 ar  
    68    25    67 1   
    69    26    27 ar  
    70    26    68 1   
    71    27    28 ar  
    72    27    29 1   
    73    28    69 1   
    74    29    70 1   
    75    31    71 1   
    76    32    72 1   
    77    33    73 1   
    78    34    74 1   
    79    37    75 1   
    80    37    76 1   
    81    39    77 1   
    82    43    78 1   
    83    44    79 1   
@<TRIPOS>SUBSTRUCTURE
     1 7ZH         1 TEMP              0 ****  ****    0 ROOT
