@<TRIPOS>MOLECULE
7ZJ
   49    51     1     0     0
SMALL
No Charge or Current Charge


@<TRIPOS>ATOM
      1 N3           5.7120    -2.3460    -0.6650 na         1 7ZJ      -0.347600
      2 C4           6.8540    -2.2380    -1.4220 cc         1 7ZJ       0.625700
      3 C6           5.2260    -1.0790    -0.5480 ca         1 7ZJ      -0.058200
      4 C7          -5.3590     0.9460     1.0900 c3         1 7ZJ       0.146800
      5 C8           6.0870    -0.2670    -1.2340 ca         1 7ZJ       0.077400
      6 C10          1.6600     0.8830     1.4480 c          1 7ZJ       0.601100
      7 C17         -1.7140     1.1360     1.4200 ca         1 7ZJ      -0.056000
      8 C21         -0.6000     1.9180     1.0530 ca         1 7ZJ      -0.071300
      9 C22          5.8560     1.1130    -1.3000 ca         1 7ZJ      -0.038000
     10 C24         -3.3370    -1.8610    -0.5750 c3         1 7ZJ      -0.360100
     11 C26          4.7180     1.6340    -0.6430 ca         1 7ZJ      -0.179000
     12 C28         -1.8060     2.6680    -0.9260 ca         1 7ZJ      -0.107000
     13 S1          -3.8730    -1.3950     1.0580 s6         1 7ZJ       1.233100
     14 N5           7.1350    -0.9960    -1.7990 nd         1 7ZJ      -0.635100
     15 C9          -2.8740     1.1060     0.6200 ca         1 7ZJ       0.249000
     16 C11         -6.3970     0.6410    -0.0390 c          1 7ZJ       0.588100
     17 C12          4.0880    -0.6060     0.1160 ca         1 7ZJ      -0.132000
     18 O13         -5.2270    -1.9140     1.2730 o          1 7ZJ      -0.534000
     19 O14         -2.8070    -1.7140     2.0110 o          1 7ZJ      -0.534000
     20 C16          3.8280     0.7870     0.0670 ca         1 7ZJ      -0.021000
     21 O18          1.5170    -0.3050     1.7140 o          1 7ZJ      -0.559100
     22 O19         -6.1020     0.3700    -1.1940 o          1 7ZJ      -0.613100
     23 N20          7.6070    -3.2900    -1.7430 nv         1 7ZJ      -1.007200
     24 C23          0.6510     1.9370     1.9250 c3         1 7ZJ      -0.114100
     25 N25         -7.7040     0.6990     0.3150 nt         1 7ZJ      -0.604000
     26 C27         -2.9120     1.8860    -0.5500 ca         1 7ZJ      -0.101000
     27 C29         -0.6510     2.6820    -0.1280 ca         1 7ZJ      -0.089000
     28 H1           5.3190    -3.1980    -0.2950 hn         1 7ZJ       0.358000
     29 H2          -5.8160     0.6380     2.0390 h1         1 7ZJ       0.081200
     30 H3          -5.2740     2.0390     1.1430 h1         1 7ZJ       0.081200
     31 H4          -1.6820     0.5600     2.3400 ha         1 7ZJ       0.128000
     32 H5           6.5360     1.7640    -1.8430 ha         1 7ZJ       0.127000
     33 H6          -3.2630    -2.9520    -0.5960 h1         1 7ZJ       0.106700
     34 H7          -4.0900    -1.4970    -1.2810 h1         1 7ZJ       0.106700
     35 H8          -2.3650    -1.3900    -0.7490 h1         1 7ZJ       0.106700
     36 H9           4.5270     2.7040    -0.6880 ha         1 7ZJ       0.106000
     37 H10         -1.8440     3.2610    -1.8370 ha         1 7ZJ       0.120000
     38 H12          3.4450    -1.3030     0.6430 ha         1 7ZJ       0.154000
     39 H13          2.6700     2.4010     0.5680 hn         1 7ZJ       0.146000
     40 H14          7.5260    -4.1170    -1.1630 hn         1 7ZJ       0.473000
     41 H15          8.5320    -3.0820    -2.1020 hn         1 7ZJ       0.473000
     42 H16          0.3800     1.7170     2.9640 hc         1 7ZJ       0.064200
     43 H17          1.1050     2.9340     1.8750 hc         1 7ZJ       0.064200
     44 H18         -7.9690     0.9200     1.2640 hn         1 7ZJ       0.317500
     45 H19         -8.4090     0.5090    -0.3820 hn         1 7ZJ       0.317500
     46 H20         -3.7970     1.8770    -1.1790 ha         1 7ZJ       0.135000
     47 H21          0.2000     3.2900    -0.4260 ha         1 7ZJ       0.113000
     48 N15          2.7090     1.3990     0.6960 ns         1 7ZJ      -0.146000
     49 N2          -3.9950     0.3330     0.9830 nh         1 7ZJ      -0.795300
@<TRIPOS>BOND
     1     1     2 1   
     2     1     3 1   
     3     1    28 1   
     4     2    14 2   
     5     2    23 1   
     6     3     5 ar  
     7     3    17 ar  
     8     4    16 1   
     9     4    29 1   
    10     4    30 1   
    11     4    49 1   
    12     5     9 ar  
    13     5    14 1   
    14     6    21 2   
    15     6    24 1   
    16     6    48 1   
    17     7     8 ar  
    18     7    15 ar  
    19     7    31 1   
    20     8    24 1   
    21     8    27 ar  
    22     9    11 ar  
    23     9    32 1   
    24    10    13 1   
    25    10    33 1   
    26    10    34 1   
    27    10    35 1   
    28    11    20 ar  
    29    11    36 1   
    30    12    26 ar  
    31    12    27 ar  
    32    12    37 1   
    33    13    18 2   
    34    13    19 2   
    35    13    49 1   
    36    15    26 ar  
    37    15    49 1   
    38    16    22 2   
    39    16    25 1   
    40    17    20 ar  
    41    17    38 1   
    42    20    48 1   
    43    23    40 1   
    44    23    41 1   
    45    24    42 1   
    46    24    43 1   
    47    25    44 1   
    48    25    45 1   
    49    26    46 1   
    50    27    47 1   
    51    39    48 1   
@<TRIPOS>SUBSTRUCTURE
     1 7ZJ         1 TEMP              0 ****  ****    0 ROOT
