@<TRIPOS>MOLECULE
7ZJ
   49    51     1     0     0
SMALL
bcc


@<TRIPOS>ATOM
      1 N3           5.8510    -2.1710    -0.5820 na         1 7ZJ      -0.297300
      2 C4           7.2130    -2.1050    -0.6160 cc         1 7ZJ       0.625700
      3 C6           5.3920    -0.9140    -0.2690 ca         1 7ZJ      -0.058200
      4 C7          -4.8300     0.3230     1.6580 c3         1 7ZJ       0.146800
      5 C8           6.5550    -0.1410    -0.1290 ca         1 7ZJ       0.077400
      6 C10          1.5160     1.0900     0.4060 c          1 7ZJ       0.668100
      7 C17         -1.7600     0.9410     0.6710 ca         1 7ZJ      -0.074000
      8 C21         -0.8600     1.8390     0.1110 ca         1 7ZJ      -0.071300
      9 C22          6.4230     1.2050     0.1900 ca         1 7ZJ      -0.056000
     10 C24         -4.8570    -1.9160    -1.2460 c3         1 7ZJ      -0.249300
     11 C26          5.1500     1.7230     0.3570 ca         1 7ZJ      -0.197000
     12 C28         -2.4110     2.2100    -1.7030 ca         1 7ZJ      -0.125000
     13 S1          -3.8960    -1.7910     0.2420 s6         1 7ZJ       1.263900
     14 N5           7.6760    -0.9100    -0.3480 nd         1 7ZJ      -0.635100
     15 C9          -2.9810     0.6890     0.0590 ca         1 7ZJ       0.110600
     16 C11         -6.0440     0.9980     1.0310 c          1 7ZJ       0.655100
     17 C12          4.1080    -0.4210    -0.1080 ca         1 7ZJ      -0.150000
     18 O13         -4.5870    -2.5310     1.2890 o          1 7ZJ      -0.604800
     19 O14         -2.5260    -2.1430    -0.0950 o          1 7ZJ      -0.604800
     20 C16          3.9980     0.9320     0.2140 ca         1 7ZJ       0.071600
     21 O18          1.2340    -0.0710     0.1690 o          1 7ZJ      -0.559100
     22 O19         -6.4190     0.7360    -0.1000 o          1 7ZJ      -0.613100
     23 N20          7.9650    -3.1790    -0.9610 nv         1 7ZJ      -0.896800
     24 C23          0.4560     2.1170     0.7740 c3         1 7ZJ      -0.114100
     25 N25         -6.6690     1.8550     1.8460 nt         1 7ZJ      -0.671000
     26 C27         -3.3140     1.3250    -1.1300 ca         1 7ZJ      -0.119000
     27 C29         -1.1950     2.4650    -1.0870 ca         1 7ZJ      -0.107000
     28 H1           5.2880    -2.9840    -0.7770 hn         1 7ZJ       0.307700
     29 H2          -5.1890    -0.4810     2.3030 h1         1 7ZJ       0.081200
     30 H3          -4.2960     1.0150     2.3120 h1         1 7ZJ       0.081200
     31 H4          -1.5240     0.4440     1.6040 ha         1 7ZJ       0.146000
     32 H5           7.2910     1.8410     0.3070 ha         1 7ZJ       0.145000
     33 H6          -4.8460    -2.9610    -1.5530 h1         1 7ZJ       0.106700
     34 H7          -5.8710    -1.5860    -1.0490 h1         1 7ZJ       0.106700
     35 H8          -4.4050    -1.3010    -2.0210 h1         1 7ZJ       0.106700
     36 H9           5.0380     2.7730     0.6040 ha         1 7ZJ       0.124000
     37 H10         -2.6620     2.7080    -2.6310 ha         1 7ZJ       0.138000
     38 H12          3.2450    -1.0540    -0.2300 ha         1 7ZJ       0.172000
     39 H13          2.8560     2.5750     0.6060 hn         1 7ZJ       0.312500
     40 H14          7.5830    -4.0920    -0.7760 hn         1 7ZJ       0.417800
     41 H15          8.9430    -3.1020    -0.7320 hn         1 7ZJ       0.417800
     42 H16          0.3440     2.0770     1.8620 hc         1 7ZJ       0.064200
     43 H17          0.7950     3.1270     0.5370 hc         1 7ZJ       0.064200
     44 H18         -6.3250     2.0620     2.7680 hn         1 7ZJ       0.317500
     45 H19         -7.5310     2.2940     1.5650 hn         1 7ZJ       0.317500
     46 H20         -4.2760     1.1430    -1.5890 ha         1 7ZJ       0.153000
     47 H21         -0.5030     3.1650    -1.5380 ha         1 7ZJ       0.131000
     48 N15          2.7730     1.5890     0.4090 ns         1 7ZJ      -0.472100
     49 N2          -3.8950    -0.2030     0.6920 nh         1 7ZJ      -0.656900
@<TRIPOS>BOND
     1     1     2 1   
     2     1     3 1   
     3     1    28 1   
     4     2    14 2   
     5     2    23 1   
     6     3     5 ar  
     7     3    17 ar  
     8     4    16 1   
     9     4    29 1   
    10     4    30 1   
    11     4    49 1   
    12     5     9 ar  
    13     5    14 1   
    14     6    21 2   
    15     6    24 1   
    16     6    48 1   
    17     7     8 ar  
    18     7    15 ar  
    19     7    31 1   
    20     8    24 1   
    21     8    27 ar  
    22     9    11 ar  
    23     9    32 1   
    24    10    13 1   
    25    10    33 1   
    26    10    34 1   
    27    10    35 1   
    28    11    20 ar  
    29    11    36 1   
    30    12    26 ar  
    31    12    27 ar  
    32    12    37 1   
    33    13    18 2   
    34    13    19 2   
    35    13    49 1   
    36    15    26 ar  
    37    15    49 1   
    38    16    22 2   
    39    16    25 1   
    40    17    20 ar  
    41    17    38 1   
    42    20    48 1   
    43    23    40 1   
    44    23    41 1   
    45    24    42 1   
    46    24    43 1   
    47    25    44 1   
    48    25    45 1   
    49    26    46 1   
    50    27    47 1   
    51    39    48 1   
@<TRIPOS>SUBSTRUCTURE
     1 7ZJ         1 TEMP              0 ****  ****    0 ROOT
