@<TRIPOS>MOLECULE
7ZK
   64    68     1     0     0
SMALL
abcg2


@<TRIPOS>ATOM
      1 C13          4.7900    23.3890     8.4380 cc         1 7ZK       0.325500
      2 C15          6.7010    21.9350     9.1340 ca         1 7ZK      -0.093000
      3 C17          7.1640    21.5480    11.4530 ca         1 7ZK       0.201000
      4 C20          5.3090    22.9290    10.8220 ca         1 7ZK      -0.093000
      5 C22          2.9830    23.9640     7.4250 cd         1 7ZK       0.428400
      6 C24          3.8250    25.1180     5.3670 c5         1 7ZK       0.071300
      7 C28         -0.6320    24.4980     4.4430 c3         1 7ZK       0.148800
      8 C02          5.1550    25.7680     1.8370 ca         1 7ZK      -0.064800
      9 C03          4.8290    24.6190     1.1100 ca         1 7ZK      -0.116000
     10 C04          5.5760    23.4490     1.2080 ca         1 7ZK      -0.064800
     11 C05          5.2080    22.2200     0.4210 c3         1 7ZK      -0.047800
     12 C06          6.6780    23.4260     2.0710 ca         1 7ZK      -0.114000
     13 C07          6.9920    24.5580     2.7940 ca         1 7ZK       0.121100
     14 C09          7.9170    24.5330     4.9650 ca         1 7ZK       0.348300
     15 C11          6.5110    24.2960     6.7410 ca         1 7ZK       0.249500
     16 C12          5.1780    23.9990     7.2500 cd         1 7ZK      -0.276500
     17 C14          5.6160    22.7500     9.4700 ca         1 7ZK      -0.094500
     18 C16          7.4790    21.3370    10.1160 ca         1 7ZK      -0.087000
     19 C19          6.0770    22.3350    11.8160 ca         1 7ZK      -0.087000
     20 C25          2.5820    24.6920     4.5870 c5         1 7ZK       0.143800
     21 C30          2.2240    26.9280     5.0410 c5         1 7ZK       0.151800
     22 C31          3.5940    26.6240     5.6570 c5         1 7ZK      -0.097400
     23 C32          7.5710    24.6220     7.5930 ca         1 7ZK      -0.237000
     24 C33          8.8030    24.8450     7.0070 ca         1 7ZK       0.133900
     25 C35          6.2550    25.7300     2.6860 ca         1 7ZK      -0.114000
     26 I18          8.3520    20.6510    12.9560 i          1 7ZK      -0.324000
     27 N10          6.7060    24.2480     5.4140 nb         1 7ZK      -0.257000
     28 N21          3.4200    23.3850     8.5280 nc         1 7ZK      -0.681000
     29 N23          3.9930    24.3370     6.6060 na         1 7ZK      -0.136500
     30 N26          1.5410    25.6290     5.0160 n3         1 7ZK      -0.720600
     31 N29         -0.1190    23.1940     4.0020 n8         1 7ZK      -1.002200
     32 N34          8.9990    24.8070     5.6830 nb         1 7ZK      -0.179000
     33 O08          8.1180    24.5370     3.6260 os         1 7ZK      -0.347400
     34 H1           6.9390    21.7570     8.0940 ha         1 7ZK       0.126500
     35 H2           4.4680    23.5500    11.1000 ha         1 7ZK       0.126500
     36 H3           1.9520    24.1510     7.1720 h5         1 7ZK       0.081100
     37 H4           4.7190    24.9510     4.7840 h1         1 7ZK       0.111700
     38 H5          -0.8340    24.4400     5.5160 h1         1 7ZK       0.038700
     39 H6          -1.5780    24.7640     3.9490 h1         1 7ZK       0.038700
     40 H7           3.2710    26.7930     1.6690 hc         1 7ZK       0.044867
     41 H8           4.5230    27.7090     2.5200 hc         1 7ZK       0.044867
     42 H9           4.5820    27.5420     0.7630 hc         1 7ZK       0.044867
     43 H10          3.9660    24.6390     0.4530 ha         1 7ZK       0.112000
     44 H11          6.0330    21.9070    -0.2240 hc         1 7ZK       0.044867
     45 H12          4.9840    21.3830     1.0860 hc         1 7ZK       0.044867
     46 H13          4.3340    22.4020    -0.2050 hc         1 7ZK       0.044867
     47 H14          7.2760    22.5310     2.1890 ha         1 7ZK       0.128000
     48 H15          8.3130    20.7090     9.8350 ha         1 7ZK       0.127000
     49 H16          5.8300    22.4930    12.8570 ha         1 7ZK       0.127000
     50 H17          2.2910    23.6610     4.7620 h1         1 7ZK       0.067200
     51 H18          2.7900    24.8050     3.5100 h1         1 7ZK       0.067200
     52 H21          2.3460    27.3260     4.0220 h1         1 7ZK       0.039700
     53 H22          1.6470    27.6520     5.6180 h1         1 7ZK       0.039700
     54 H23          4.3820    27.2350     5.2190 hc         1 7ZK       0.061700
     55 H24          3.5910    26.7960     6.7320 hc         1 7ZK       0.061700
     56 H25          7.4390    24.6990     8.6600 ha         1 7ZK       0.150000
     57 H26          9.6690    25.0790     7.6150 h4         1 7ZK       0.033100
     58 H27          6.5310    26.5940     3.2770 ha         1 7ZK       0.128000
     59 H29         -0.8300    22.4840     4.1450 hn         1 7ZK       0.393500
     60 H30          0.0530    23.2210     3.0010 hn         1 7ZK       0.393500
     61 C27          0.3410    25.6400     4.1890 c3         1 7ZK       0.173800
     62 C01          4.3380    27.0230     1.6940 c3         1 7ZK      -0.047800
     63 H19          0.6100    25.6630     3.1170 h1         1 7ZK       0.030200
     64 H20         -0.1900    26.5710     4.3980 h1         1 7ZK       0.030200
@<TRIPOS>BOND
     1     1    16 2   
     2     1    17 1   
     3     1    28 1   
     4     2    17 ar  
     5     2    18 ar  
     6     2    34 1   
     7     3    18 ar  
     8     3    19 ar  
     9     3    26 1   
    10     4    17 ar  
    11     4    19 ar  
    12     4    35 1   
    13     5    28 2   
    14     5    29 1   
    15     5    36 1   
    16     6    20 1   
    17     6    22 1   
    18     6    29 1   
    19     6    37 1   
    20     7    31 1   
    21     7    38 1   
    22     7    39 1   
    23     7    61 1   
    24     8     9 ar  
    25     8    25 ar  
    26     8    62 1   
    27     9    10 ar  
    28     9    43 1   
    29    10    11 1   
    30    10    12 ar  
    31    11    44 1   
    32    11    45 1   
    33    11    46 1   
    34    12    13 ar  
    35    12    47 1   
    36    13    25 ar  
    37    13    33 1   
    38    14    27 ar  
    39    14    32 ar  
    40    14    33 1   
    41    15    16 1   
    42    15    23 ar  
    43    15    27 ar  
    44    16    29 1   
    45    18    48 1   
    46    19    49 1   
    47    20    30 1   
    48    20    50 1   
    49    20    51 1   
    50    21    22 1   
    51    21    30 1   
    52    21    52 1   
    53    21    53 1   
    54    22    54 1   
    55    22    55 1   
    56    23    24 ar  
    57    23    56 1   
    58    24    32 ar  
    59    24    57 1   
    60    25    58 1   
    61    30    61 1   
    62    31    59 1   
    63    31    60 1   
    64    40    62 1   
    65    41    62 1   
    66    42    62 1   
    67    61    63 1   
    68    61    64 1   
@<TRIPOS>SUBSTRUCTURE
     1 7ZK         1 TEMP              0 ****  ****    0 ROOT
