@<TRIPOS>MOLECULE
7ZK
   64    68     1     0     0
SMALL
No Charge or Current Charge


@<TRIPOS>ATOM
      1 C13          4.7640    23.2330     8.4440 cc         1 7ZK       0.325500
      2 C15          6.6830    21.7950     9.1410 ca         1 7ZK      -0.093000
      3 C17          7.3450    21.6530    11.4770 ca         1 7ZK       0.201000
      4 C20          5.4780    23.0720    10.8260 ca         1 7ZK      -0.093000
      5 C22          2.9400    23.6190     7.4170 cd         1 7ZK       0.428400
      6 C24          3.7760    24.5470     5.2010 c5         1 7ZK       0.071300
      7 C28         -0.7660    24.3980     4.5450 c3         1 7ZK       0.148800
      8 C02          5.3810    26.3400     1.7540 ca         1 7ZK      -0.064800
      9 C03          4.7590    25.1640     1.2920 ca         1 7ZK      -0.116000
     10 C04          5.2900    23.8990     1.6100 ca         1 7ZK      -0.064800
     11 C05          4.6020    22.6330     1.1240 c3         1 7ZK      -0.047800
     12 C06          6.4490    23.8150     2.4030 ca         1 7ZK      -0.114000
     13 C07          7.0660    24.9850     2.8740 ca         1 7ZK       0.121100
     14 C09          7.9840    24.7030     5.0730 ca         1 7ZK       0.348300
     15 C11          6.5560    24.1900     6.8350 ca         1 7ZK       0.249500
     16 C12          5.1810    23.8130     7.2650 cd         1 7ZK      -0.276500
     17 C14          5.6700    22.7210     9.4740 ca         1 7ZK      -0.094500
     18 C16          7.5240    21.2720    10.1390 ca         1 7ZK      -0.087000
     19 C19          6.3200    22.5480    11.8240 ca         1 7ZK      -0.087000
     20 C25          2.4180    24.2010     4.5070 c5         1 7ZK       0.143800
     21 C30          2.5390    26.4890     4.3500 c5         1 7ZK       0.151800
     22 C31          3.7870    26.1130     5.1840 c5         1 7ZK      -0.097400
     23 C32          7.6300    24.3910     7.7240 ca         1 7ZK      -0.237000
     24 C33          8.8800    24.7360     7.1860 ca         1 7ZK       0.133900
     25 C35          6.5400    26.2440     2.5450 ca         1 7ZK      -0.114000
     26 I18          8.6400    20.8460    13.0130 i          1 7ZK      -0.324000
     27 N10          6.7570    24.3560     5.5180 nb         1 7ZK      -0.257000
     28 N21          3.4140    23.1410     8.5570 nc         1 7ZK      -0.681000
     29 N23          3.9750    23.9830     6.5550 na         1 7ZK      -0.136500
     30 N26          1.6070    25.4170     4.7480 n3         1 7ZK      -0.720600
     31 N29         -0.5450    23.0240     4.0110 n8         1 7ZK      -1.002200
     32 N34          9.0610    24.8910     5.8610 nb         1 7ZK      -0.179000
     33 O08          8.1500    24.9020     3.7180 os         1 7ZK      -0.347400
     34 H1           6.8180    21.4840     8.1070 ha         1 7ZK       0.126500
     35 H2           4.6810    23.7590    11.1020 ha         1 7ZK       0.126500
     36 H3           1.8950    23.7180     7.1460 h5         1 7ZK       0.081100
     37 H4           4.5480    24.1520     4.5330 h1         1 7ZK       0.111700
     38 H5          -0.7780    24.3570     5.6430 h1         1 7ZK       0.038700
     39 H6          -1.7610    24.7260     4.2140 h1         1 7ZK       0.038700
     40 H7           3.7720    27.6280     1.0450 hc         1 7ZK       0.044867
     41 H8           4.7820    28.3540     2.3020 hc         1 7ZK       0.044867
     42 H9           5.4000    28.2050     0.6480 hc         1 7ZK       0.044867
     43 H10          3.8580    25.2320     0.6870 ha         1 7ZK       0.112000
     44 H11          5.3290    21.8370     0.9220 hc         1 7ZK       0.044867
     45 H12          3.8960    22.2600     1.8750 hc         1 7ZK       0.044867
     46 H13          4.0440    22.8100     0.1970 hc         1 7ZK       0.044867
     47 H14          6.8590    22.8450     2.6750 ha         1 7ZK       0.128000
     48 H15          8.3100    20.5690     9.8770 ha         1 7ZK       0.127000
     49 H16          6.1780    22.8300    12.8630 ha         1 7ZK       0.127000
     50 H17          1.9650    23.2870     4.9130 h1         1 7ZK       0.067200
     51 H18          2.5700    24.0360     3.4300 h1         1 7ZK       0.067200
     52 H21          2.7510    26.4600     3.2720 h1         1 7ZK       0.039700
     53 H22          2.1630    27.4910     4.6000 h1         1 7ZK       0.039700
     54 H23          4.7080    26.5220     4.7570 hc         1 7ZK       0.061700
     55 H24          3.6990    26.5200     6.1980 hc         1 7ZK       0.061700
     56 H25          7.5130    24.3240     8.7990 ha         1 7ZK       0.150000
     57 H26          9.7450    24.9070     7.8240 h4         1 7ZK       0.033100
     58 H27          7.0210    27.1430     2.9240 ha         1 7ZK       0.128000
     59 H29         -1.3300    22.4250     4.2940 hn         1 7ZK       0.393500
     60 H30         -0.6160    23.0480     2.9880 hn         1 7ZK       0.393500
     61 C27          0.2780    25.4650     4.0810 c3         1 7ZK       0.173800
     62 C01          4.8010    27.7050     1.4180 c3         1 7ZK      -0.047800
     63 H19          0.3980    25.3910     2.9920 h1         1 7ZK       0.030200
     64 H20         -0.1670    26.4490     4.2790 h1         1 7ZK       0.030200
@<TRIPOS>BOND
     1     1    16 2   
     2     1    17 1   
     3     1    28 1   
     4     2    17 ar  
     5     2    18 ar  
     6     2    34 1   
     7     3    18 ar  
     8     3    19 ar  
     9     3    26 1   
    10     4    17 ar  
    11     4    19 ar  
    12     4    35 1   
    13     5    28 2   
    14     5    29 1   
    15     5    36 1   
    16     6    20 1   
    17     6    22 1   
    18     6    29 1   
    19     6    37 1   
    20     7    31 1   
    21     7    38 1   
    22     7    39 1   
    23     7    61 1   
    24     8     9 ar  
    25     8    25 ar  
    26     8    62 1   
    27     9    10 ar  
    28     9    43 1   
    29    10    11 1   
    30    10    12 ar  
    31    11    44 1   
    32    11    45 1   
    33    11    46 1   
    34    12    13 ar  
    35    12    47 1   
    36    13    25 ar  
    37    13    33 1   
    38    14    27 ar  
    39    14    32 ar  
    40    14    33 1   
    41    15    16 1   
    42    15    23 ar  
    43    15    27 ar  
    44    16    29 1   
    45    18    48 1   
    46    19    49 1   
    47    20    30 1   
    48    20    50 1   
    49    20    51 1   
    50    21    22 1   
    51    21    30 1   
    52    21    52 1   
    53    21    53 1   
    54    22    54 1   
    55    22    55 1   
    56    23    24 ar  
    57    23    56 1   
    58    24    32 ar  
    59    24    57 1   
    60    25    58 1   
    61    30    61 1   
    62    31    59 1   
    63    31    60 1   
    64    40    62 1   
    65    41    62 1   
    66    42    62 1   
    67    61    63 1   
    68    61    64 1   
@<TRIPOS>SUBSTRUCTURE
     1 7ZK         1 TEMP              0 ****  ****    0 ROOT
