@<TRIPOS>MOLECULE
7ZL
   24    25     1     0     0
SMALL
abcg2


@<TRIPOS>ATOM
      1 C4           2.2590    -0.8630     0.2530 ca         1 7ZL      -0.148000
      2 C5           2.6830     1.4530    -0.2520 ca         1 7ZL      -0.148000
      3 C6          -3.0660    -0.2150    -0.2090 ca         1 7ZL       0.191900
      4 C7           1.7710     0.4110    -0.0470 ca         1 7ZL       0.308000
      5 C8          -1.9660     0.6050    -0.2560 ca         1 7ZL      -0.132000
      6 C10         -1.7540    -2.0170     0.1110 ca         1 7ZL       0.418900
      7 N12         -0.6220    -1.3100     0.0770 nb         1 7ZL      -0.320000
      8 C1           4.5330    -0.0360     0.1360 ca         1 7ZL      -0.136000
      9 C2           3.6310    -1.0690     0.3400 ca         1 7ZL      -0.084500
     10 C3           4.0450     1.2310    -0.1610 ca         1 7ZL      -0.084500
     11 C9          -0.6980    -0.0030    -0.1060 ca         1 7ZL       0.445900
     12 N11         -2.9880    -1.5270    -0.0290 nb         1 7ZL      -0.270000
     13 N14          0.4220     0.7530    -0.1560 nu         1 7ZL      -0.928900
     14 CL1         -2.1380     2.3090    -0.4950 cl         1 7ZL      -0.189000
     15 H1           1.5810    -1.6830     0.4140 ha         1 7ZL       0.128500
     16 H2           2.3180     2.4460    -0.4880 ha         1 7ZL       0.128500
     17 H3          -4.0580     0.2070    -0.3230 h4         1 7ZL       0.032100
     18 H4           5.5980    -0.2120     0.2060 ha         1 7ZL       0.115000
     19 H5           3.9910    -2.0620     0.5750 ha         1 7ZL       0.112500
     20 H6           4.7270     2.0540    -0.3250 ha         1 7ZL       0.112500
     21 H7          -2.4320    -3.9290     0.1710 hn         1 7ZL       0.497000
     22 H8          -0.7280    -3.7650     0.2540 hn         1 7ZL       0.497000
     23 H9           0.2640     1.7350    -0.3260 hn         1 7ZL       0.509000
     24 N13         -1.6350    -3.3390     0.3340 nv         1 7ZL      -1.054900
@<TRIPOS>BOND
     1     1     4 ar  
     2     1     9 ar  
     3     1    15 1   
     4     2     4 ar  
     5     2    10 ar  
     6     2    16 1   
     7     3     5 ar  
     8     3    12 ar  
     9     3    17 1   
    10     4    13 1   
    11     5    11 ar  
    12     5    14 1   
    13     6     7 ar  
    14     6    12 ar  
    15     6    24 1   
    16     7    11 ar  
    17     8     9 ar  
    18     8    10 ar  
    19     8    18 1   
    20     9    19 1   
    21    10    20 1   
    22    11    13 1   
    23    13    23 1   
    24    21    24 1   
    25    22    24 1   
@<TRIPOS>SUBSTRUCTURE
     1 7ZL         1 TEMP              0 ****  ****    0 ROOT
