@<TRIPOS>MOLECULE
7ZL
   24    25     1     0     0
SMALL
No Charge or Current Charge


@<TRIPOS>ATOM
      1 C4           2.2930    -0.6880     0.6780 ca         1 7ZL      -0.148000
      2 C5           2.7090     1.3460    -0.5770 ca         1 7ZL      -0.148000
      3 C6          -3.1330    -0.2170    -0.0120 ca         1 7ZL       0.191900
      4 C7           1.7980     0.4440     0.0000 ca         1 7ZL       0.308000
      5 C8          -1.9960     0.6080    -0.0220 ca         1 7ZL      -0.132000
      6 C10         -1.7780    -2.0480    -0.0700 ca         1 7ZL       0.418900
      7 N12         -0.6300    -1.3650    -0.0840 nb         1 7ZL      -0.320000
      8 C1           4.5780    -0.0280     0.1580 ca         1 7ZL      -0.136000
      9 C2           3.6780    -0.9260     0.7530 ca         1 7ZL      -0.084500
     10 C3           4.0940     1.1120    -0.5050 ca         1 7ZL      -0.084500
     11 C9          -0.7380    -0.0270    -0.0480 ca         1 7ZL       0.445900
     12 N11         -3.0260    -1.5610    -0.0350 nb         1 7ZL      -0.270000
     13 N14          0.4320     0.7310    -0.0870 nu         1 7ZL      -0.928900
     14 Cl1         -2.1650     2.3690    -0.0040 cl         1 7ZL      -0.189000
     15 H1           1.6160    -1.3800     1.1660 ha         1 7ZL       0.128500
     16 H2           2.3450     2.2300    -1.0940 ha         1 7ZL       0.128500
     17 H3          -4.1390     0.1980     0.0120 h4         1 7ZL       0.032100
     18 H4           5.6490    -0.2100     0.2170 ha         1 7ZL       0.115000
     19 H5           4.0510    -1.8030     1.2780 ha         1 7ZL       0.112500
     20 H6           4.7900     1.8120    -0.9620 ha         1 7ZL       0.112500
     21 H7          -2.4930    -3.9420    -0.3250 hn         1 7ZL       0.497000
     22 H8          -0.7680    -3.7980    -0.3600 hn         1 7ZL       0.497000
     23 H9           0.2330     1.7120    -0.2790 hn         1 7ZL       0.509000
     24 N13         -1.6650    -3.3940    -0.1020 nv         1 7ZL      -1.054900
@<TRIPOS>BOND
     1     1     4 ar  
     2     1     9 ar  
     3     1    15 1   
     4     2     4 ar  
     5     2    10 ar  
     6     2    16 1   
     7     3     5 ar  
     8     3    12 ar  
     9     3    17 1   
    10     4    13 1   
    11     5    11 ar  
    12     5    14 1   
    13     6     7 ar  
    14     6    12 ar  
    15     6    24 1   
    16     7    11 ar  
    17     8     9 ar  
    18     8    10 ar  
    19     8    18 1   
    20     9    19 1   
    21    10    20 1   
    22    11    13 1   
    23    13    23 1   
    24    21    24 1   
    25    22    24 1   
@<TRIPOS>SUBSTRUCTURE
     1 7ZL         1 TEMP              0 ****  ****    0 ROOT
