@<TRIPOS>MOLECULE
7ZO
   27    29     1     0     0
SMALL
No Charge or Current Charge


@<TRIPOS>ATOM
      1 C4           4.3590     1.0560    -0.0490 ca         1 7ZO       0.149900
      2 C5           2.6240     2.4930    -0.4820 ca         1 7ZO       0.165900
      3 C6          -2.4820     0.2070     0.2460 ca         1 7ZO      -0.129300
      4 C7          -3.0670    -0.9600    -0.1870 ca         1 7ZO      -0.038000
      5 C8          -0.2860    -0.7630    -0.1280 ca         1 7ZO       0.261000
      6 C10          2.0790     0.2880    -0.1490 ca         1 7ZO       0.399900
      7 C1          -2.3220    -2.0690    -0.5960 ca         1 7ZO      -0.127000
      8 C2          -0.9150    -1.9590    -0.5570 ca         1 7ZO      -0.108000
      9 C3          -1.0850     0.3330     0.2910 ca         1 7ZO      -0.044000
     10 C9           3.4460    -0.0100     0.0370 ca         1 7ZO      -0.075000
     11 C11         -4.8910     0.4350     0.3450 c          1 7ZO       0.565000
     12 C12         -3.5650     1.2100     0.6330 c5         1 7ZO      -0.119100
     13 N13          3.9510     2.3150    -0.3080 nb         1 7ZO      -0.203000
     14 N14          1.6700     1.5410    -0.4200 nb         1 7ZO      -0.251000
     15 N15         -4.4440    -0.7870    -0.1150 ns         1 7ZO      -0.147000
     16 N16          1.1180    -0.7270    -0.1030 nu         1 7ZO      -0.934900
     17 O17         -6.0570     0.7870     0.4750 o          1 7ZO      -0.524000
     18 Cl1          4.0150    -1.6510     0.3670 cl         1 7ZO      -0.182000
     19 H1           5.4280     0.9020     0.0870 h4         1 7ZO       0.036100
     20 H2           2.2910     3.5060    -0.6960 h5         1 7ZO       0.052100
     21 H3          -2.8070    -2.9840    -0.9290 ha         1 7ZO       0.126000
     22 H4          -0.3100    -2.8050    -0.8700 ha         1 7ZO       0.118000
     23 H5          -0.6390     1.2490     0.6600 ha         1 7ZO       0.139000
     24 H6          -3.5480     1.5040     1.6880 hc         1 7ZO       0.093200
     25 H7          -3.5560     2.1320     0.0430 hc         1 7ZO       0.093200
     26 H8          -5.0870    -1.5190    -0.3890 hn         1 7ZO       0.173000
     27 H9           1.5490    -1.6520    -0.1050 hn         1 7ZO       0.512000
@<TRIPOS>BOND
     1     1    10 ar  
     2     1    13 ar  
     3     1    19 1   
     4     2    13 ar  
     5     2    14 ar  
     6     2    20 1   
     7     3     4 ar  
     8     3     9 ar  
     9     3    12 1   
    10     4     7 ar  
    11     4    15 1   
    12     5     8 ar  
    13     5     9 ar  
    14     5    16 1   
    15     6    10 ar  
    16     6    14 ar  
    17     6    16 1   
    18     7     8 ar  
    19     7    21 1   
    20     8    22 1   
    21     9    23 1   
    22    10    18 1   
    23    11    12 1   
    24    11    15 1   
    25    11    17 2   
    26    12    24 1   
    27    12    25 1   
    28    15    26 1   
    29    16    27 1   
@<TRIPOS>SUBSTRUCTURE
     1 7ZO         1 TEMP              0 ****  ****    0 ROOT
