@<TRIPOS>MOLECULE
7ZO
   27    29     1     0     0
SMALL
abcg2


@<TRIPOS>ATOM
      1 C4           4.2060     1.0950    -0.1510 ca         1 7ZO       0.149900
      2 C5           2.4190     2.3360    -0.7020 ca         1 7ZO       0.165900
      3 C6          -2.3990     0.2110     0.3420 ca         1 7ZO      -0.129300
      4 C7          -3.0040    -0.8860    -0.2710 ca         1 7ZO      -0.038000
      5 C8          -0.2600    -0.7880    -0.0050 ca         1 7ZO       0.261000
      6 C10          2.0000     0.1880    -0.0790 ca         1 7ZO       0.399900
      7 C1          -2.2600    -1.9460    -0.7490 ca         1 7ZO      -0.127000
      8 C2          -0.8770    -1.8760    -0.6160 ca         1 7ZO      -0.108000
      9 C3          -1.0320     0.2680     0.4900 ca         1 7ZO      -0.044000
     10 C9           3.3900     0.0230     0.1040 ca         1 7ZO      -0.075000
     11 C11         -4.7510     0.4740     0.2990 c          1 7ZO       0.565000
     12 C12         -3.4740     1.1640     0.7560 c5         1 7ZO      -0.119100
     13 N13          3.7300     2.2740    -0.5570 nb         1 7ZO      -0.203000
     14 N14          1.5440     1.3690    -0.4890 nb         1 7ZO      -0.251000
     15 N15         -4.3810    -0.7010    -0.2830 ns         1 7ZO      -0.147000
     16 N16          1.1390    -0.8220     0.1500 nu         1 7ZO      -0.934900
     17 O17         -5.8890     0.8770     0.4210 o          1 7ZO      -0.524000
     18 CL1          4.0450    -1.4830     0.6320 cl         1 7ZO      -0.182000
     19 H1           5.2790     1.0050    -0.0220 h4         1 7ZO       0.036100
     20 H2           2.0080     3.2830    -1.0340 h5         1 7ZO       0.052100
     21 H3          -2.7230    -2.8020    -1.2200 ha         1 7ZO       0.126000
     22 H4          -0.2700    -2.6890    -0.9960 ha         1 7ZO       0.118000
     23 H5          -0.5690     1.1080     0.9880 ha         1 7ZO       0.139000
     24 H6          -3.5100     1.3340     1.8350 hc         1 7ZO       0.093200
     25 H7          -3.3890     2.1450     0.2830 hc         1 7ZO       0.093200
     26 H8          -5.0410    -1.3600    -0.6670 hn         1 7ZO       0.173000
     27 H9           1.5400    -1.7290     0.3310 hn         1 7ZO       0.512000
@<TRIPOS>BOND
     1     1    10 ar  
     2     1    13 ar  
     3     1    19 1   
     4     2    13 ar  
     5     2    14 ar  
     6     2    20 1   
     7     3     4 ar  
     8     3     9 ar  
     9     3    12 1   
    10     4     7 ar  
    11     4    15 1   
    12     5     8 ar  
    13     5     9 ar  
    14     5    16 1   
    15     6    10 ar  
    16     6    14 ar  
    17     6    16 1   
    18     7     8 ar  
    19     7    21 1   
    20     8    22 1   
    21     9    23 1   
    22    10    18 1   
    23    11    12 1   
    24    11    15 1   
    25    11    17 2   
    26    12    24 1   
    27    12    25 1   
    28    15    26 1   
    29    16    27 1   
@<TRIPOS>SUBSTRUCTURE
     1 7ZO         1 TEMP              0 ****  ****    0 ROOT
