@<TRIPOS>MOLECULE
7ZQ
   39    40     1     0     0
SMALL
abcg2


@<TRIPOS>ATOM
      1 C10        134.9660   134.2000   145.3770 c3         1 7ZQ       0.166000
      2 C11        135.3120   135.4240   144.5380 c3         1 7ZQ      -0.104100
      3 C12        135.7380   132.9840   144.9050 ca         1 7ZQ      -0.099300
      4 C13        137.0580   132.7720   145.2930 ca         1 7ZQ      -0.090000
      5 C14        137.7670   131.6780   144.8180 ca         1 7ZQ      -0.109500
      6 C15        137.1670   130.7810   143.9430 ca         1 7ZQ      -0.107000
      7 C16        135.8510   130.9870   143.5490 ca         1 7ZQ      -0.109500
      8 C17        135.1440   132.0810   144.0300 ca         1 7ZQ      -0.090000
      9 C1         135.7720   130.0990   153.1020 ca         1 7ZQ      -0.112000
     10 C2         136.3810   128.9150   152.7150 ca         1 7ZQ      -0.084000
     11 C3         136.9280   128.8300   151.4430 ca         1 7ZQ       0.108000
     12 C4         136.8760   129.8960   150.5640 ca         1 7ZQ      -0.048000
     13 C5         136.2480   131.0750   150.9540 ca         1 7ZQ      -0.137600
     14 C6         135.7000   131.1750   152.2300 ca         1 7ZQ      -0.087000
     15 C7         136.2330   132.2000   149.9690 c          1 7ZQ       0.615700
     16 C8         135.1330   134.1900   149.1690 c3         1 7ZQ       0.021000
     17 N1         135.2480   133.1050   150.1020 ns         1 7ZQ      -0.484900
     18 N2         135.2140   134.4980   146.7740 ns         1 7ZQ      -0.503900
     19 O1         137.0820   132.2880   149.0950 o          1 7ZQ      -0.592100
     20 O2         134.1340   132.6900   147.5800 o          1 7ZQ      -0.587100
     21 H1         133.9000   133.9920   145.2570 h1         1 7ZQ       0.069700
     22 H2         134.7220   136.2870   144.8470 hc         1 7ZQ       0.044367
     23 H3         136.3700   135.6790   144.6280 hc         1 7ZQ       0.044367
     24 H4         135.1040   135.2300   143.4870 hc         1 7ZQ       0.044367
     25 H5         137.5380   133.4600   145.9790 ha         1 7ZQ       0.111000
     26 H6         138.7910   131.5230   145.1330 ha         1 7ZQ       0.111500
     27 H7         137.7190   129.9260   143.5750 ha         1 7ZQ       0.110000
     28 H8         135.3710   130.2910   142.8720 ha         1 7ZQ       0.111500
     29 H9         134.1150   132.2320   143.7240 ha         1 7ZQ       0.111000
     30 H10        135.3540   130.1820   154.0960 ha         1 7ZQ       0.120000
     31 H11        136.4330   128.0750   153.3950 ha         1 7ZQ       0.131000
     32 H12        137.3160   129.8130   149.5790 ha         1 7ZQ       0.154000
     33 H13        135.2380   132.0930   152.5690 ha         1 7ZQ       0.115000
     34 H14        136.0450   134.7890   149.1640 h1         1 7ZQ       0.064700
     35 H15        134.3280   134.8420   149.5110 h1         1 7ZQ       0.064700
     36 H16        134.4660   132.9160   150.7080 hn         1 7ZQ       0.326500
     37 H17        135.8090   135.2810   146.9960 hn         1 7ZQ       0.313500
     38 C9         134.7870   133.7020   147.7650 c          1 7ZQ       0.585100
     39 CL1        137.6980   127.3610   150.9450 cl         1 7ZQ      -0.195000
@<TRIPOS>BOND
     1     1     2 1   
     2     1     3 1   
     3     1    18 1   
     4     1    21 1   
     5     2    22 1   
     6     2    23 1   
     7     2    24 1   
     8     3     4 ar  
     9     3     8 ar  
    10     4     5 ar  
    11     4    25 1   
    12     5     6 ar  
    13     5    26 1   
    14     6     7 ar  
    15     6    27 1   
    16     7     8 ar  
    17     7    28 1   
    18     8    29 1   
    19     9    10 ar  
    20     9    14 ar  
    21     9    30 1   
    22    10    11 ar  
    23    10    31 1   
    24    11    12 ar  
    25    11    39 1   
    26    12    13 ar  
    27    12    32 1   
    28    13    14 ar  
    29    13    15 1   
    30    14    33 1   
    31    15    17 1   
    32    15    19 2   
    33    16    17 1   
    34    16    34 1   
    35    16    35 1   
    36    16    38 1   
    37    17    36 1   
    38    18    37 1   
    39    18    38 1   
    40    20    38 2   
@<TRIPOS>SUBSTRUCTURE
     1 7ZQ         1 TEMP              0 ****  ****    0 ROOT
