@<TRIPOS>MOLECULE
7ZQ
   39    40     1     0     0
SMALL
No Charge or Current Charge


@<TRIPOS>ATOM
      1 C10        134.9390   133.3830   145.3100 c3         1 7ZQ       0.166000
      2 C11        134.3530   134.7790   145.6110 c3         1 7ZQ      -0.104100
      3 C12        135.6030   133.3170   143.9360 ca         1 7ZQ      -0.099300
      4 C13        136.6630   134.1870   143.6000 ca         1 7ZQ      -0.090000
      5 C14        137.2700   134.1130   142.3340 ca         1 7ZQ      -0.109500
      6 C15        136.8260   133.1680   141.3940 ca         1 7ZQ      -0.107000
      7 C16        135.7750   132.2960   141.7220 ca         1 7ZQ      -0.109500
      8 C17        135.1670   132.3690   142.9880 ca         1 7ZQ      -0.090000
      9 C1         134.5200   130.2810   153.5030 ca         1 7ZQ      -0.112000
     10 C2         135.3500   129.8750   154.5590 ca         1 7ZQ      -0.084000
     11 C3         136.7430   129.9190   154.4060 ca         1 7ZQ       0.108000
     12 C4         137.3090   130.3680   153.2010 ca         1 7ZQ      -0.048000
     13 C5         136.4870   130.7810   152.1260 ca         1 7ZQ      -0.137600
     14 C6         135.0800   130.7320   152.2940 ca         1 7ZQ      -0.087000
     15 C7         137.1340   131.2590   150.8410 c          1 7ZQ       0.615700
     16 C8         136.7310   132.1440   148.5050 c3         1 7ZQ       0.021000
     17 N1         136.2880   131.6500   149.8280 ns         1 7ZQ      -0.484900
     18 N2         135.8850   132.9700   146.3440 ns         1 7ZQ      -0.503900
     19 O1         138.3480   131.3020   150.6990 o          1 7ZQ      -0.592100
     20 O2         134.3680   132.3790   147.9400 o          1 7ZQ      -0.587100
     21 H1         134.1040   132.6690   145.3180 h1         1 7ZQ       0.069700
     22 H2         133.7980   134.7710   146.5560 hc         1 7ZQ       0.044367
     23 H3         135.1440   135.5340   145.6870 hc         1 7ZQ       0.044367
     24 H4         133.6620   135.0810   144.8160 hc         1 7ZQ       0.044367
     25 H5         137.0220   134.9200   144.3190 ha         1 7ZQ       0.111000
     26 H6         138.0860   134.7870   142.0830 ha         1 7ZQ       0.111500
     27 H7         137.2960   133.1110   140.4150 ha         1 7ZQ       0.110000
     28 H8         135.4310   131.5630   140.9960 ha         1 7ZQ       0.111500
     29 H9         134.3550   131.6870   143.2290 ha         1 7ZQ       0.111000
     30 H10        133.4380   130.2470   153.6200 ha         1 7ZQ       0.120000
     31 H11        134.9160   129.5260   155.4930 ha         1 7ZQ       0.131000
     32 H12        138.3920   130.3920   153.1070 ha         1 7ZQ       0.154000
     33 H13        134.4040   131.0380   151.5000 ha         1 7ZQ       0.115000
     34 H14        137.3300   131.3730   148.0050 h1         1 7ZQ       0.064700
     35 H15        137.3480   133.0420   148.6360 h1         1 7ZQ       0.064700
     36 H16        135.2920   131.5910   150.0060 hn         1 7ZQ       0.326500
     37 H17        136.8750   133.0250   146.1330 hn         1 7ZQ       0.313500
     38 C9         135.5360   132.5030   147.5910 c          1 7ZQ       0.585100
     39 Cl1        137.7870   129.4100   155.7280 cl         1 7ZQ      -0.195000
@<TRIPOS>BOND
     1     1     2 1   
     2     1     3 1   
     3     1    18 1   
     4     1    21 1   
     5     2    22 1   
     6     2    23 1   
     7     2    24 1   
     8     3     4 ar  
     9     3     8 ar  
    10     4     5 ar  
    11     4    25 1   
    12     5     6 ar  
    13     5    26 1   
    14     6     7 ar  
    15     6    27 1   
    16     7     8 ar  
    17     7    28 1   
    18     8    29 1   
    19     9    10 ar  
    20     9    14 ar  
    21     9    30 1   
    22    10    11 ar  
    23    10    31 1   
    24    11    12 ar  
    25    11    39 1   
    26    12    13 ar  
    27    12    32 1   
    28    13    14 ar  
    29    13    15 1   
    30    14    33 1   
    31    15    17 1   
    32    15    19 2   
    33    16    17 1   
    34    16    34 1   
    35    16    35 1   
    36    16    38 1   
    37    17    36 1   
    38    18    37 1   
    39    18    38 1   
    40    20    38 2   
@<TRIPOS>SUBSTRUCTURE
     1 7ZQ         1 TEMP              0 ****  ****    0 ROOT
