@<TRIPOS>MOLECULE
7ZR
   43    45     1     0     0
SMALL
bcc


@<TRIPOS>ATOM
      1 C10          3.4200     1.6240    -0.4130 ca         1 7ZR      -0.223000
      2 C15         -0.3050    -1.0810    -1.5890 cc         1 7ZR       0.652300
      3 C20         -3.2690     0.7080    -0.7540 ca         1 7ZR      -0.122500
      4 C21         -3.5550     0.2580     0.5310 ca         1 7ZR      -0.036000
      5 C22         -4.6680     0.7530     1.1910 ca         1 7ZR      -0.182200
      6 C24         -5.2250     2.1280    -0.6640 ca         1 7ZR      -0.143000
      7 N26         -4.9550     0.2730     2.5370 no         1 7ZR       0.313200
      8 O28         -5.9130     0.7350     3.1110 o          1 7ZR      -0.208500
      9 C01          4.4140     3.6680     1.2380 c3         1 7ZR       0.118700
     10 O02          4.3350     2.3320     1.7040 os         1 7ZR      -0.286900
     11 C03          3.8560     1.3970     0.8830 ca         1 7ZR       0.180100
     12 C04          3.8160     0.0850     1.4190 ca         1 7ZR       0.101100
     13 O05          4.2710    -0.0370     2.6720 os         1 7ZR      -0.296900
     14 C06          4.2660    -1.3220     3.2650 c3         1 7ZR       0.118700
     15 C07          3.3340    -0.9520     0.6480 ca         1 7ZR      -0.106000
     16 C08          2.8990    -0.6920    -0.6560 ca         1 7ZR      -0.328500
     17 C09          2.9390     0.5790    -1.1930 ca         1 7ZR      -0.012000
     18 S11          2.2190    -2.0080    -1.5950 sy         1 7ZR       1.317200
     19 O12          2.2570    -1.6510    -3.0010 o          1 7ZR      -0.594300
     20 O13          2.7470    -3.2690    -1.1220 o          1 7ZR      -0.594300
     21 N14          0.5900    -2.0590    -1.2070 nu         1 7ZR      -0.779800
     22 N16         -1.2930    -0.7330    -0.8380 nd         1 7ZR      -0.691000
     23 C17         -2.0910     0.1920    -1.4600 cd         1 7ZR       0.425800
     24 C18         -1.6770     0.5500    -2.7050 cc         1 7ZR      -0.231400
     25 S19         -0.2560    -0.3070    -3.1390 ss         1 7ZR      -0.074300
     26 C23         -5.5160     1.6870     0.6170 ca         1 7ZR      -0.060000
     27 C25         -4.1180     1.6470    -1.3420 ca         1 7ZR      -0.078000
     28 O27         -4.2230    -0.5620     3.0130 o          1 7ZR      -0.208500
     29 H1           3.4510     2.6150    -0.8410 ha         1 7ZR       0.145000
     30 H2          -2.9080    -0.4680     1.0010 ha         1 7ZR       0.189000
     31 H3          -5.8700     2.8550    -1.1380 ha         1 7ZR       0.146000
     32 H4           3.4290     4.0680     0.9850 h1         1 7ZR       0.047700
     33 H5           4.8320     4.2510     2.0540 h1         1 7ZR       0.047700
     34 H6           5.0690     3.7540     0.3680 h1         1 7ZR       0.047700
     35 H7           4.8860    -2.0290     2.7080 h1         1 7ZR       0.046367
     36 H8           4.6810    -1.2010     4.2620 h1         1 7ZR       0.046367
     37 H9           3.2540    -1.7260     3.3510 h1         1 7ZR       0.046367
     38 H10          3.3040    -1.9600     1.0370 ha         1 7ZR       0.159000
     39 H11          2.6150     0.7810    -2.2040 ha         1 7ZR       0.156000
     40 H12          0.3820    -2.4710    -0.3020 hn         1 7ZR       0.460800
     41 H13         -2.1060     1.2690    -3.3840 h4         1 7ZR       0.180000
     42 H14         -6.3790     2.0670     1.1420 ha         1 7ZR       0.170000
     43 H15         -3.9210     2.0140    -2.3410 ha         1 7ZR       0.140000
@<TRIPOS>BOND
     1     1    11 ar  
     2     1    17 ar  
     3     1    29 1   
     4     2    21 1   
     5     2    22 2   
     6     2    25 1   
     7     3     4 ar  
     8     3    23 1   
     9     3    27 ar  
    10     4     5 ar  
    11     4    30 1   
    12     5     7 1   
    13     5    26 ar  
    14     6    26 ar  
    15     6    27 ar  
    16     6    31 1   
    17     7     8 1   
    18     7    28 1   
    19     9    10 1   
    20     9    32 1   
    21     9    33 1   
    22     9    34 1   
    23    10    11 1   
    24    11    12 ar  
    25    12    13 1   
    26    12    15 ar  
    27    13    14 1   
    28    14    35 1   
    29    14    36 1   
    30    14    37 1   
    31    15    16 ar  
    32    15    38 1   
    33    16    17 ar  
    34    16    18 1   
    35    17    39 1   
    36    18    19 2   
    37    18    20 2   
    38    18    21 1   
    39    21    40 1   
    40    22    23 1   
    41    23    24 2   
    42    24    25 1   
    43    24    41 1   
    44    26    42 1   
    45    27    43 1   
@<TRIPOS>SUBSTRUCTURE
     1 7ZR         1 TEMP              0 ****  ****    0 ROOT
