@<TRIPOS>MOLECULE
7ZR
   43    45     1     0     0
SMALL
No Charge or Current Charge


@<TRIPOS>ATOM
      1 C10          3.9020     1.2980    -0.9960 ca         1 7ZR      -0.205000
      2 C15          0.0810    -1.2150    -2.0070 cc         1 7ZR       0.652300
      3 C20         -2.3790     0.5380    -0.0640 ca         1 7ZR      -0.122500
      4 C21         -2.8160    -0.3940     0.9080 ca         1 7ZR      -0.018000
      5 C22         -3.7740    -0.0350     1.8870 ca         1 7ZR      -0.182200
      6 C24         -3.8720     2.2050     0.9260 ca         1 7ZR      -0.125000
      7 N26         -4.2240    -1.0320     2.9100 no         1 7ZR       0.693200
      8 O28         -5.0750    -0.6800     3.7370 o          1 7ZR      -0.398500
      9 C01          4.4170     3.8390     0.3080 c3         1 7ZR       0.141900
     10 O02          3.5740     2.8260     0.8840 os         1 7ZR      -0.310100
     11 C03          3.3320     1.6130     0.2580 ca         1 7ZR       0.180100
     12 C04          2.4810     0.6810     0.8970 ca         1 7ZR       0.101100
     13 O05          1.9070     1.0260     2.1120 os         1 7ZR      -0.320100
     14 C06          0.9090     0.2110     2.7540 c3         1 7ZR       0.141900
     15 C07          2.2240    -0.5650     0.2800 ca         1 7ZR      -0.088000
     16 C08          2.7850    -0.8670    -0.9810 ca         1 7ZR      -0.328500
     17 C09          3.6260     0.0680    -1.6150 ca         1 7ZR       0.006000
     18 S11          2.3800    -2.4220    -1.7980 sy         1 7ZR       1.175600
     19 O12          2.9790    -2.4780    -3.1330 o          1 7ZR      -0.523500
     20 O13          2.4890    -3.5220    -0.8400 o          1 7ZR      -0.523500
     21 N14          0.7470    -2.3730    -2.0750 nu         1 7ZR      -0.835000
     22 N16         -0.8240    -1.1260    -1.0670 nd         1 7ZR      -0.691000
     23 C17         -1.3650     0.1530    -1.0730 cd         1 7ZR       0.360500
     24 C18         -0.8650     0.9860    -2.0530 cc         1 7ZR      -0.293000
     25 S19          0.3320     0.1790    -3.0260 ss         1 7ZR       0.070600
     26 C23         -4.3000     1.2760     1.8870 ca         1 7ZR      -0.042000
     27 C25         -2.9200     1.8420    -0.0400 ca         1 7ZR      -0.060000
     28 O27         -3.7200    -2.1630     2.8880 o          1 7ZR      -0.398500
     29 H1           4.5550     1.9960    -1.5110 ha         1 7ZR       0.127000
     30 H2          -2.4070    -1.4030     0.9030 ha         1 7ZR       0.171000
     31 H3          -4.2790     3.2140     0.9310 ha         1 7ZR       0.128000
     32 H4           4.0220     4.1700    -0.6610 h1         1 7ZR       0.047700
     33 H5           4.4680     4.7120     0.9700 h1         1 7ZR       0.047700
     34 H6           5.4370     3.4620     0.1640 h1         1 7ZR       0.047700
     35 H7           1.3160    -0.7740     3.0150 h1         1 7ZR       0.046367
     36 H8           0.5660     0.6910     3.6790 h1         1 7ZR       0.046367
     37 H9           0.0390     0.0730     2.1000 h1         1 7ZR       0.046367
     38 H10          1.5750    -1.2950     0.7560 ha         1 7ZR       0.141000
     39 H11          4.0640    -0.1480    -2.5890 ha         1 7ZR       0.138000
     40 H12          0.3910    -2.9920    -1.3680 hn         1 7ZR       0.516000
     41 H13         -1.1090     2.0150    -2.2700 h4         1 7ZR       0.162000
     42 H14         -5.0380     1.5850     2.6250 ha         1 7ZR       0.152000
     43 H15         -2.6100     2.5890    -0.7660 ha         1 7ZR       0.122000
@<TRIPOS>BOND
     1     1    11 ar  
     2     1    17 ar  
     3     1    29 1   
     4     2    21 1   
     5     2    22 2   
     6     2    25 1   
     7     3     4 ar  
     8     3    23 1   
     9     3    27 ar  
    10     4     5 ar  
    11     4    30 1   
    12     5     7 1   
    13     5    26 ar  
    14     6    26 ar  
    15     6    27 ar  
    16     6    31 1   
    17     7     8 1   
    18     7    28 1   
    19     9    10 1   
    20     9    32 1   
    21     9    33 1   
    22     9    34 1   
    23    10    11 1   
    24    11    12 ar  
    25    12    13 1   
    26    12    15 ar  
    27    13    14 1   
    28    14    35 1   
    29    14    36 1   
    30    14    37 1   
    31    15    16 ar  
    32    15    38 1   
    33    16    17 ar  
    34    16    18 1   
    35    17    39 1   
    36    18    19 2   
    37    18    20 2   
    38    18    21 1   
    39    21    40 1   
    40    22    23 1   
    41    23    24 2   
    42    24    25 1   
    43    24    41 1   
    44    26    42 1   
    45    27    43 1   
@<TRIPOS>SUBSTRUCTURE
     1 7ZR         1 TEMP              0 ****  ****    0 ROOT
