@<TRIPOS>MOLECULE
7ZS
   17    17     1     0     0
SMALL
abcg2


@<TRIPOS>ATOM
      1 C            2.0970    -0.5670     0.1680 c          1 7ZS       0.724600
      2 O            1.9130    -1.7920     0.4110 o          1 7ZS      -0.693500
      3 C1           0.8370     0.2600     0.0350 ca         1 7ZS      -0.289600
      4 C2           0.8820     1.6490     0.0050 ca         1 7ZS      -0.009000
      5 C3          -0.2770     2.4150    -0.0280 ca         1 7ZS      -0.220000
      6 C4          -1.5000     1.7720    -0.0040 ca         1 7ZS      -0.042000
      7 C5          -1.5930     0.3770     0.0160 ca         1 7ZS      -0.308600
      8 C6          -0.4100    -0.3880    -0.0150 ca         1 7ZS       0.275100
      9 C7          -2.9350    -0.1930     0.0770 c          1 7ZS       0.600500
     10 O1           3.1980     0.0020     0.1180 o          1 7ZS      -0.693500
     11 O2          -0.4550    -1.7090    -0.0990 oh         1 7ZS      -0.588100
     12 H1           1.8580     2.1160     0.0200 ha         1 7ZS       0.123000
     13 H2          -0.2220     3.4950    -0.0550 ha         1 7ZS       0.092000
     14 H3          -2.4140     2.3540     0.0130 ha         1 7ZS       0.083000
     15 H4          -3.7210     0.5820     0.1160 h4         1 7ZS      -0.056800
     16 H8           0.5040    -1.9950     0.0500 ho         1 7ZS       0.546000
     17 O3          -3.2370    -1.3690     0.1190 o          1 7ZS      -0.545100
@<TRIPOS>BOND
     1     1     2 1   
     2     1     3 1   
     3     1    10 1   
     4     3     4 ar  
     5     3     8 ar  
     6     4     5 ar  
     7     4    12 1   
     8     5     6 ar  
     9     5    13 1   
    10     6     7 ar  
    11     6    14 1   
    12     7     8 ar  
    13     7     9 1   
    14     8    11 1   
    15     9    15 1   
    16     9    17 2   
    17    11    16 1   
@<TRIPOS>SUBSTRUCTURE
     1 7ZS         1 TEMP              0 ****  ****    0 ROOT
