@<TRIPOS>MOLECULE
7ZS
   17    17     1     0     0
SMALL
No Charge or Current Charge


@<TRIPOS>ATOM
      1 C            2.1320    -0.5690     0.1150 c          1 7ZS       0.724600
      2 O            2.0480    -1.7890     0.1520 o          1 7ZS      -0.693500
      3 C1           0.8490     0.2340     0.0750 ca         1 7ZS      -0.289600
      4 C2           0.9180     1.6450     0.0320 ca         1 7ZS      -0.009000
      5 C3          -0.2530     2.4120    -0.0050 ca         1 7ZS      -0.220000
      6 C4          -1.5070     1.7920    -0.0010 ca         1 7ZS      -0.042000
      7 C5          -1.6070     0.3890     0.0410 ca         1 7ZS      -0.308600
      8 C6          -0.4240    -0.3860     0.0790 ca         1 7ZS       0.275100
      9 C7          -2.9990    -0.1980     0.0430 c          1 7ZS       0.600500
     10 O1           3.1970     0.0280     0.1090 o          1 7ZS      -0.693500
     11 O2          -0.4900    -1.7400     0.1200 oh         1 7ZS      -0.588100
     12 H1           1.8790     2.1570     0.0280 ha         1 7ZS       0.123000
     13 H2          -0.1870     3.4970    -0.0380 ha         1 7ZS       0.092000
     14 H3          -2.4040     2.4080    -0.0310 ha         1 7ZS       0.083000
     15 H4          -3.8200     0.5520     0.0090 h4         1 7ZS      -0.056800
     16 H8           0.4670    -2.0280     0.1410 ho         1 7ZS       0.546000
     17 O3          -3.2760    -1.3920     0.0770 o          1 7ZS      -0.545100
@<TRIPOS>BOND
     1     1     2 1   
     2     1     3 1   
     3     1    10 1   
     4     3     4 ar  
     5     3     8 ar  
     6     4     5 ar  
     7     4    12 1   
     8     5     6 ar  
     9     5    13 1   
    10     6     7 ar  
    11     6    14 1   
    12     7     8 ar  
    13     7     9 1   
    14     8    11 1   
    15     9    15 1   
    16     9    17 2   
    17    11    16 1   
@<TRIPOS>SUBSTRUCTURE
     1 7ZS         1 TEMP              0 ****  ****    0 ROOT
