@<TRIPOS>MOLECULE
7ZT
   64    68     1     0     0
SMALL
abcg2


@<TRIPOS>ATOM
      1 C01          5.5030    22.4660     0.1430 c3         1 7ZT      -0.048300
      2 C02          5.8870    23.5840     1.0680 ca         1 7ZT      -0.063800
      3 C03          5.3030    24.8410     0.9520 ca         1 7ZT      -0.118000
      4 C04          5.6700    25.9000     1.7790 ca         1 7ZT      -0.063800
      5 C05          4.9960    27.2360     1.6620 c3         1 7ZT      -0.048300
      6 C06          6.6550    25.6900     2.7390 ca         1 7ZT      -0.119000
      7 C07          7.2310    24.4360     2.8610 ca         1 7ZT       0.126100
      8 C09          8.0160    24.2270     5.0720 ca         1 7ZT       0.355300
      9 C11          6.5610    24.1280     6.8000 ca         1 7ZT       0.246500
     10 C12          5.1930    24.0110     7.2890 cc         1 7ZT      -0.276500
     11 C13          4.7130    23.4370     8.4530 cd         1 7ZT       0.322500
     12 C14          5.4200    22.6550     9.4720 ca         1 7ZT      -0.095500
     13 C15          5.1190    22.8390    10.8210 ca         1 7ZT      -0.093500
     14 C16          5.7510    22.0900    11.8030 ca         1 7ZT      -0.086500
     15 C17          6.6900    21.1400    11.4300 ca         1 7ZT       0.198000
     16 C19          6.9980    20.9290    10.0930 ca         1 7ZT      -0.086500
     17 C20          6.3570    21.6840     9.1240 ca         1 7ZT      -0.093500
     18 C22          3.0350    24.2950     7.4680 cc         1 7ZT       0.418400
     19 C24          4.0080    25.2170     5.3720 c5         1 7ZT       0.087300
     20 C25          2.9550    26.3210     5.3490 c5         1 7ZT       0.143800
     21 C28         -0.6470    25.7960     4.3790 c3         1 7ZT       0.154800
     22 C30          2.1900    24.8070     3.8030 c5         1 7ZT       0.152800
     23 C31          3.5340    24.2430     4.2720 c5         1 7ZT      -0.095400
     24 C32          7.6280    24.2720     7.6850 ca         1 7ZT      -0.237000
     25 C33          8.8890    24.3430     7.1270 ca         1 7ZT       0.137900
     26 C35          6.8590    23.3840     2.0470 ca         1 7ZT      -0.119000
     27 I18          7.6530    19.9960    12.9080 i          1 7ZT      -0.318000
     28 N10          6.7710    24.1010     5.4830 nb         1 7ZT      -0.257000
     29 N21          3.3730    23.6340     8.5470 nd         1 7ZT      -0.675000
     30 N23          4.0880    24.5510     6.6710 na         1 7ZT      -0.130500
     31 N26          1.7530    25.6480     4.9060 n3         1 7ZT      -0.732600
     32 N29         -1.0040    25.0290     5.5610 n8         1 7ZT      -0.994200
     33 N34          9.1020    24.3230     5.8170 nb         1 7ZT      -0.181000
     34 O08          8.2640    24.2420     3.7560 os         1 7ZT      -0.345400
     35 H1           6.2320    22.3630    -0.6630 hc         1 7ZT       0.044867
     36 H2           5.4640    21.5100     0.6650 hc         1 7ZT       0.044867
     37 H3           4.5310    22.6430    -0.3160 hc         1 7ZT       0.044867
     38 H4           4.5400    25.0010     0.1970 ha         1 7ZT       0.114000
     39 H5           4.1840    27.3220     2.3880 hc         1 7ZT       0.044867
     40 H6           5.6900    28.0540     1.8550 hc         1 7ZT       0.044867
     41 H7           4.5640    27.3810     0.6730 hc         1 7ZT       0.044867
     42 H8           6.9700    26.5020     3.3850 ha         1 7ZT       0.128500
     43 H9           4.3880    23.5820    11.1130 ha         1 7ZT       0.126000
     44 H10          5.5050    22.2570    12.8430 ha         1 7ZT       0.127500
     45 H11          7.7180    20.1790     9.7960 ha         1 7ZT       0.127500
     46 H12          6.5830    21.4960     8.0820 ha         1 7ZT       0.126000
     47 H13          2.0340    24.6040     7.2060 h5         1 7ZT       0.082100
     48 H14          4.9900    25.6240     5.1550 h1         1 7ZT       0.092700
     49 H15          3.2830    27.0930     4.6320 h1         1 7ZT       0.051700
     50 H16          2.8160    26.8150     6.3130 h1         1 7ZT       0.051700
     51 H17          0.8780    27.1650     3.7200 h1         1 7ZT       0.040700
     52 H18          0.5300    27.2210     5.4500 h1         1 7ZT       0.040700
     53 H19         -1.4260    26.5390     4.1910 h1         1 7ZT       0.027200
     54 H20         -0.5760    25.1940     3.4620 h1         1 7ZT       0.027200
     55 H21          2.3250    25.3980     2.8820 h1         1 7ZT       0.040200
     56 H22          1.4630    24.0250     3.5840 h1         1 7ZT       0.040200
     57 H23          3.4260    23.2370     4.6780 hc         1 7ZT       0.072700
     58 H24          4.2520    24.1870     3.4570 hc         1 7ZT       0.072700
     59 H25          7.4860    24.3390     8.7530 ha         1 7ZT       0.152000
     60 H26          9.7650    24.4380     7.7580 h4         1 7ZT       0.033100
     61 H27          7.3320    22.4160     2.1640 ha         1 7ZT       0.128500
     62 H29         -1.8530    24.5090     5.3850 hn         1 7ZT       0.399500
     63 H30         -0.2830    24.3400     5.7340 hn         1 7ZT       0.399500
     64 C27          0.6580    26.5410     4.6030 c3         1 7ZT       0.167800
@<TRIPOS>BOND
     1     1     2 1   
     2     1    35 1   
     3     1    36 1   
     4     1    37 1   
     5     2     3 ar  
     6     2    26 ar  
     7     3     4 ar  
     8     3    38 1   
     9     4     5 1   
    10     4     6 ar  
    11     5    39 1   
    12     5    40 1   
    13     5    41 1   
    14     6     7 ar  
    15     6    42 1   
    16     7    26 ar  
    17     7    34 1   
    18     8    28 ar  
    19     8    33 ar  
    20     8    34 1   
    21     9    10 1   
    22     9    24 ar  
    23     9    28 ar  
    24    10    11 2   
    25    10    30 1   
    26    11    12 1   
    27    11    29 1   
    28    12    13 ar  
    29    12    17 ar  
    30    13    14 ar  
    31    13    43 1   
    32    14    15 ar  
    33    14    44 1   
    34    15    16 ar  
    35    15    27 1   
    36    16    17 ar  
    37    16    45 1   
    38    17    46 1   
    39    18    29 2   
    40    18    30 1   
    41    18    47 1   
    42    19    20 1   
    43    19    23 1   
    44    19    30 1   
    45    19    48 1   
    46    20    31 1   
    47    20    49 1   
    48    20    50 1   
    49    21    32 1   
    50    21    53 1   
    51    21    54 1   
    52    21    64 1   
    53    22    23 1   
    54    22    31 1   
    55    22    55 1   
    56    22    56 1   
    57    23    57 1   
    58    23    58 1   
    59    24    25 ar  
    60    24    59 1   
    61    25    33 ar  
    62    25    60 1   
    63    26    61 1   
    64    31    64 1   
    65    32    62 1   
    66    32    63 1   
    67    51    64 1   
    68    52    64 1   
@<TRIPOS>SUBSTRUCTURE
     1 7ZT         1 TEMP              0 ****  ****    0 ROOT
