@<TRIPOS>MOLECULE
7ZT
   64    68     1     0     0
SMALL
No Charge or Current Charge


@<TRIPOS>ATOM
      1 C01          5.1120    22.5420    -0.0230 c3         1 7ZT      -0.048300
      2 C02          5.6540    23.5390     0.9900 ca         1 7ZT      -0.063800
      3 C03          5.1550    24.8560     1.0230 ca         1 7ZT      -0.118000
      4 C04          5.6500    25.7870     1.9560 ca         1 7ZT      -0.063800
      5 C05          5.1110    27.2080     1.9900 c3         1 7ZT      -0.048300
      6 C06          6.6530    25.3920     2.8600 ca         1 7ZT      -0.119000
      7 C07          7.1470    24.0740     2.8390 ca         1 7ZT       0.126100
      8 C09          7.9710    23.9160     5.0890 ca         1 7ZT       0.355300
      9 C11          6.5790    24.1300     6.9250 ca         1 7ZT       0.246500
     10 C12          5.2230    24.1470     7.4760 cc         1 7ZT      -0.276500
     11 C13          4.8480    23.6040     8.6900 cd         1 7ZT       0.322500
     12 C14          5.6140    22.7660     9.6520 ca         1 7ZT      -0.095500
     13 C15          5.1440    22.6270    10.9800 ca         1 7ZT      -0.093500
     14 C16          5.8190    21.8110    11.9060 ca         1 7ZT      -0.086500
     15 C17          6.9580    21.0980    11.5120 ca         1 7ZT       0.198000
     16 C19          7.4120    21.1840    10.1890 ca         1 7ZT      -0.086500
     17 C20          6.7390    22.0000     9.2620 ca         1 7ZT      -0.093500
     18 C22          3.0450    24.4080     7.7810 cc         1 7ZT       0.418400
     19 C24          3.9200    25.2120     5.5380 c5         1 7ZT       0.087300
     20 C25          2.8660    26.3600     5.4310 c5         1 7ZT       0.143800
     21 C28         -0.6680    25.8990     3.8400 c3         1 7ZT       0.154800
     22 C30          2.3370    24.9520     3.6860 c5         1 7ZT       0.152800
     23 C31          3.4350    24.1870     4.4580 c5         1 7ZT      -0.095400
     24 C32          7.6910    24.4920     7.7050 ca         1 7ZT      -0.237000
     25 C33          8.9490    24.5040     7.0850 ca         1 7ZT       0.137900
     26 C35          6.6570    23.1540     1.9000 ca         1 7ZT      -0.119000
     27 I18          7.9940    19.8360    12.9340 i          1 7ZT      -0.318000
     28 N10          6.7290    23.8530     5.6180 nb         1 7ZT      -0.257000
     29 N21          3.4910    23.8020     8.8740 nd         1 7ZT      -0.675000
     30 N23          4.0650    24.6110     6.8750 na         1 7ZT      -0.130500
     31 N26          1.7060    25.6970     4.7950 n3         1 7ZT      -0.732600
     32 N29         -1.2250    24.8820     4.7630 n8         1 7ZT      -0.994200
     33 N34          9.0920    24.2160     5.7780 nb         1 7ZT      -0.181000
     34 O08          8.1070    23.6740     3.7410 os         1 7ZT      -0.345400
     35 H1           5.6600    22.6120    -0.9700 hc         1 7ZT       0.044867
     36 H2           5.2020    21.5110     0.3410 hc         1 7ZT       0.044867
     37 H3           4.0520    22.7240    -0.2340 hc         1 7ZT       0.044867
     38 H4           4.3820    25.1560     0.3200 ha         1 7ZT       0.114000
     39 H5           5.0460    27.5840     3.0170 hc         1 7ZT       0.044867
     40 H6           5.7620    27.8860     1.4250 hc         1 7ZT       0.044867
     41 H7           4.1070    27.2690     1.5530 hc         1 7ZT       0.044867
     42 H8           7.0440    26.1050     3.5810 ha         1 7ZT       0.128500
     43 H9           4.2610    23.1700    11.3090 ha         1 7ZT       0.126000
     44 H10          5.4570    21.7300    12.9270 ha         1 7ZT       0.127500
     45 H11          8.2780    20.6050     9.8780 ha         1 7ZT       0.127500
     46 H12          7.0840    21.9930     8.2340 ha         1 7ZT       0.126000
     47 H13          2.0200    24.6960     7.5770 h5         1 7ZT       0.082100
     48 H14          4.8850    25.6380     5.2400 h1         1 7ZT       0.092700
     49 H15          3.2490    27.1720     4.7960 h1         1 7ZT       0.051700
     50 H16          2.6180    26.7980     6.4070 h1         1 7ZT       0.051700
     51 H17          0.9440    27.3410     3.6770 h1         1 7ZT       0.040700
     52 H18          0.2780    27.1830     5.3020 h1         1 7ZT       0.040700
     53 H19         -1.4470    26.6380     3.6100 h1         1 7ZT       0.027200
     54 H20         -0.3900    25.3970     2.9030 h1         1 7ZT       0.027200
     55 H21          2.7660    25.6290     2.9340 h1         1 7ZT       0.040200
     56 H22          1.6430    24.2680     3.1790 h1         1 7ZT       0.040200
     57 H23          3.0110    23.2900     4.9240 hc         1 7ZT       0.072700
     58 H24          4.2450    23.8500     3.8030 hc         1 7ZT       0.072700
     59 H25          7.5840    24.7560     8.7530 ha         1 7ZT       0.152000
     60 H26          9.8520    24.7630     7.6360 h4         1 7ZT       0.033100
     61 H27          7.0490    22.1400     1.8880 ha         1 7ZT       0.128500
     62 H29         -1.7990    24.2220     4.2270 hn         1 7ZT       0.399500
     63 H30         -0.4310    24.3140     5.0860 hn         1 7ZT       0.399500
     64 C27          0.5920    26.6110     4.4180 c3         1 7ZT       0.167800
@<TRIPOS>BOND
     1     1     2 1   
     2     1    35 1   
     3     1    36 1   
     4     1    37 1   
     5     2     3 ar  
     6     2    26 ar  
     7     3     4 ar  
     8     3    38 1   
     9     4     5 1   
    10     4     6 ar  
    11     5    39 1   
    12     5    40 1   
    13     5    41 1   
    14     6     7 ar  
    15     6    42 1   
    16     7    26 ar  
    17     7    34 1   
    18     8    28 ar  
    19     8    33 ar  
    20     8    34 1   
    21     9    10 1   
    22     9    24 ar  
    23     9    28 ar  
    24    10    11 2   
    25    10    30 1   
    26    11    12 1   
    27    11    29 1   
    28    12    13 ar  
    29    12    17 ar  
    30    13    14 ar  
    31    13    43 1   
    32    14    15 ar  
    33    14    44 1   
    34    15    16 ar  
    35    15    27 1   
    36    16    17 ar  
    37    16    45 1   
    38    17    46 1   
    39    18    29 2   
    40    18    30 1   
    41    18    47 1   
    42    19    20 1   
    43    19    23 1   
    44    19    30 1   
    45    19    48 1   
    46    20    31 1   
    47    20    49 1   
    48    20    50 1   
    49    21    32 1   
    50    21    53 1   
    51    21    54 1   
    52    21    64 1   
    53    22    23 1   
    54    22    31 1   
    55    22    55 1   
    56    22    56 1   
    57    23    57 1   
    58    23    58 1   
    59    24    25 ar  
    60    24    59 1   
    61    25    33 ar  
    62    25    60 1   
    63    26    61 1   
    64    31    64 1   
    65    32    62 1   
    66    32    63 1   
    67    51    64 1   
    68    52    64 1   
@<TRIPOS>SUBSTRUCTURE
     1 7ZT         1 TEMP              0 ****  ****    0 ROOT
