@<TRIPOS>MOLECULE
7ZU
   75    77     1     0     0
SMALL
No Charge or Current Charge


@<TRIPOS>ATOM
      1 O3          -7.6460    -0.2750     0.3360 oh         1 7ZU      -0.658000
      2 C25         -7.5340     1.0990    -0.0300 c3         1 7ZU       0.192000
      3 C27         -8.7100     1.4160    -0.9860 c3         1 7ZU      -0.099100
      4 C26         -7.6620     1.9300     1.2720 c3         1 7ZU      -0.099100
      5 C24         -6.1400     1.2650    -0.7290 c3         1 7ZU      -0.054500
      6 C23         -5.0110     0.6760     0.1050 c2         1 7ZU      -0.209200
      7 C22         -4.4040    -0.4970    -0.1350 c2         1 7ZU      -0.219200
      8 C20         -3.2630    -1.0760     0.6820 c3         1 7ZU      -0.016500
      9 C21         -3.7180    -2.4190     1.2920 c3         1 7ZU      -0.083100
     10 C17         -1.9510    -1.1340    -0.1680 c5         1 7ZU      -0.049700
     11 C16         -1.5530     0.2770    -0.7490 c5         1 7ZU      -0.075400
     12 C13         -0.6100    -1.6260     0.5050 c5         1 7ZU      -0.035000
     13 C18         -0.3190    -0.8960     1.8640 c3         1 7ZU      -0.079100
     14 C14          0.3450    -1.2320    -0.6750 c5         1 7ZU      -0.036500
     15 C15          0.0040     0.2710    -0.8780 c5         1 7ZU      -0.070400
     16 C12         -0.4890    -3.1690     0.7340 c6         1 7ZU      -0.063400
     17 C11          0.9630    -3.5980     1.0860 c6         1 7ZU      -0.071400
     18 C9           2.0030    -3.0900     0.0530 c6         1 7ZU      -0.042200
     19 C8           1.7960    -1.6140    -0.3080 c2         1 7ZU      -0.077400
     20 C7           2.7740    -0.6740    -0.4330 ce         1 7ZU      -0.192000
     21 C6           4.2110    -0.8740    -0.1620 ce         1 7ZU      -0.162000
     22 C5           5.2290    -0.0280    -0.5090 cf         1 7ZU      -0.066200
     23 C10          5.0780     1.2100    -1.2880 cf         1 7ZU      -0.125200
     24 C4           6.6700    -0.3510    -0.0650 c6         1 7ZU      -0.073200
     25 C3           7.3710     0.8820     0.5510 c6         1 7ZU       0.175300
     26 O2           8.7340     0.5650     0.8630 oh         1 7ZU      -0.661000
     27 C2           7.3200     2.0710    -0.4320 c6         1 7ZU      -0.065400
     28 C28         -5.7930     2.7150    -1.1490 c3         1 7ZU      -0.079100
     29 C1           5.8650     2.4440    -0.7990 c6         1 7ZU       0.211500
     30 O1           5.2190     3.0650     0.3140 oh         1 7ZU      -0.656000
     31 C19          4.3280     1.2830    -2.4140 c2         1 7ZU      -0.296000
     32 H1          -6.7190    -0.5770     0.4560 ho         1 7ZU       0.440000
     33 H2          -9.6700     1.1720    -0.5160 hc         1 7ZU       0.040867
     34 H3          -8.7310     2.4800    -1.2490 hc         1 7ZU       0.040867
     35 H4          -8.6310     0.8360    -1.9130 hc         1 7ZU       0.040867
     36 H5          -6.8550     1.6980     1.9770 hc         1 7ZU       0.040867
     37 H6          -7.6320     3.0050     1.0600 hc         1 7ZU       0.040867
     38 H7          -8.6140     1.7190     1.7740 hc         1 7ZU       0.040867
     39 H8          -6.1930     0.6910    -1.6640 hc         1 7ZU       0.042700
     40 H9          -4.6910     1.2990     0.9430 ha         1 7ZU       0.172000
     41 H10         -4.7080    -1.1150    -0.9820 ha         1 7ZU       0.162000
     42 H11         -3.0820    -0.4020     1.5280 hc         1 7ZU       0.051700
     43 H12         -3.6980    -3.2210     0.5430 hc         1 7ZU       0.034700
     44 H13         -3.0840    -2.7020     2.1370 hc         1 7ZU       0.034700
     45 H14         -4.7420    -2.3380     1.6770 hc         1 7ZU       0.034700
     46 H15         -2.1900    -1.8000    -1.0070 hc         1 7ZU       0.044700
     47 H16         -2.0350     0.4480    -1.7180 hc         1 7ZU       0.042200
     48 H17         -1.8760     1.0960    -0.0960 hc         1 7ZU       0.042200
     49 H18         -0.5620     0.1720     1.8340 hc         1 7ZU       0.035033
     50 H19         -0.9160    -1.3270     2.6770 hc         1 7ZU       0.035033
     51 H20          0.7340    -0.9710     2.1580 hc         1 7ZU       0.035033
     52 H21          0.0790    -1.7820    -1.5870 hc         1 7ZU       0.052700
     53 H22          0.3380     0.6430    -1.8530 hc         1 7ZU       0.043200
     54 H23          0.4550     0.9150    -0.1150 hc         1 7ZU       0.043200
     55 H24         -1.1520    -3.5070     1.5380 hc         1 7ZU       0.040700
     56 H25         -0.8120    -3.7030    -0.1710 hc         1 7ZU       0.040700
     57 H26          1.2310    -3.2300     2.0850 hc         1 7ZU       0.041200
     58 H27          1.0180    -4.6930     1.1500 hc         1 7ZU       0.041200
     59 H28          3.0080    -3.2920     0.4360 hc         1 7ZU       0.046200
     60 H29          1.9090    -3.6840    -0.8650 hc         1 7ZU       0.046200
     61 H31          2.5270     0.3330    -0.7540 ha         1 7ZU       0.174000
     62 H32          4.4820    -1.7630     0.4040 ha         1 7ZU       0.170000
     63 H34          6.6730    -1.1740     0.6630 hc         1 7ZU       0.051700
     64 H35          7.2350    -0.7080    -0.9370 hc         1 7ZU       0.051700
     65 H36          6.8350     1.1650     1.4700 h1         1 7ZU       0.050700
     66 H37          8.7110    -0.1440     1.5420 ho         1 7ZU       0.441000
     67 H38          7.8300     2.9420     0.0000 hc         1 7ZU       0.062200
     68 H39          7.8670     1.8140    -1.3490 hc         1 7ZU       0.062200
     69 H40         -5.6970     3.3720    -0.2760 hc         1 7ZU       0.035700
     70 H41         -4.8370     2.7340    -1.6860 hc         1 7ZU       0.035700
     71 H42         -6.5550     3.1330    -1.8160 hc         1 7ZU       0.035700
     72 H43          5.9180     3.1690    -1.6250 h1         1 7ZU       0.036700
     73 H44          4.2640     3.0820     0.0890 ho         1 7ZU       0.444000
     74 H45          3.7960     0.4120    -2.7980 ha         1 7ZU       0.168500
     75 H46          4.2450     2.2070    -2.9860 ha         1 7ZU       0.168500
@<TRIPOS>BOND
     1     1     2 1   
     2     1    32 1   
     3     2     3 1   
     4     2     4 1   
     5     2     5 1   
     6     3    33 1   
     7     3    34 1   
     8     3    35 1   
     9     4    36 1   
    10     4    37 1   
    11     4    38 1   
    12     5     6 1   
    13     5    28 1   
    14     5    39 1   
    15     6     7 2   
    16     6    40 1   
    17     7     8 1   
    18     7    41 1   
    19     8     9 1   
    20     8    10 1   
    21     8    42 1   
    22     9    43 1   
    23     9    44 1   
    24     9    45 1   
    25    10    11 1   
    26    10    12 1   
    27    10    46 1   
    28    11    15 1   
    29    11    47 1   
    30    11    48 1   
    31    12    13 1   
    32    12    14 1   
    33    12    16 1   
    34    13    49 1   
    35    13    50 1   
    36    13    51 1   
    37    14    15 1   
    38    14    19 1   
    39    14    52 1   
    40    15    53 1   
    41    15    54 1   
    42    16    17 1   
    43    16    55 1   
    44    16    56 1   
    45    17    18 1   
    46    17    57 1   
    47    17    58 1   
    48    18    19 1   
    49    18    59 1   
    50    18    60 1   
    51    19    20 2   
    52    20    21 1   
    53    20    61 1   
    54    21    22 2   
    55    21    62 1   
    56    22    23 1   
    57    22    24 1   
    58    23    29 1   
    59    23    31 2   
    60    24    25 1   
    61    24    63 1   
    62    24    64 1   
    63    25    26 1   
    64    25    27 1   
    65    25    65 1   
    66    26    66 1   
    67    27    29 1   
    68    27    67 1   
    69    27    68 1   
    70    28    69 1   
    71    28    70 1   
    72    28    71 1   
    73    29    30 1   
    74    29    72 1   
    75    30    73 1   
    76    31    74 1   
    77    31    75 1   
@<TRIPOS>SUBSTRUCTURE
     1 7ZU         1 TEMP              0 ****  ****    0 ROOT
