@<TRIPOS>MOLECULE
7ZU
   75    77     1     0     0
SMALL
abcg2


@<TRIPOS>ATOM
      1 O3          -7.4110     0.5110     1.3390 oh         1 7ZU      -0.658000
      2 C25         -7.2540     1.4390     0.2740 c3         1 7ZU       0.192000
      3 C27         -8.5680     1.5420    -0.5010 c3         1 7ZU      -0.099100
      4 C26         -6.9370     2.7760     0.9330 c3         1 7ZU      -0.099100
      5 C24         -6.1160     0.9580    -0.6630 c3         1 7ZU      -0.054500
      6 C23         -4.9150     0.5010     0.1090 c2         1 7ZU      -0.209200
      7 C22         -4.3590    -0.7020     0.0160 c2         1 7ZU      -0.219200
      8 C20         -3.1310    -1.1350     0.7630 c3         1 7ZU      -0.016500
      9 C21         -3.4490    -2.3880     1.5810 c3         1 7ZU      -0.083100
     10 C17         -1.9630    -1.3160    -0.2180 c5         1 7ZU      -0.049700
     11 C16         -1.6700    -0.0160    -1.0090 c5         1 7ZU      -0.075400
     12 C13         -0.5840    -1.7340     0.3430 c5         1 7ZU      -0.035000
     13 C18         -0.2270    -0.9080     1.5810 c3         1 7ZU      -0.079100
     14 C14          0.3190    -1.3620    -0.8600 c5         1 7ZU      -0.036500
     15 C15         -0.1520     0.0250    -1.2710 c5         1 7ZU      -0.070400
     16 C12         -0.3960    -3.2290     0.6110 c6         1 7ZU      -0.063400
     17 C11          1.0730    -3.5800     0.8520 c6         1 7ZU      -0.071400
     18 C9           1.9970    -3.0890    -0.2690 c6         1 7ZU      -0.042200
     19 C8           1.7650    -1.6380    -0.5920 c2         1 7ZU      -0.077400
     20 C7           2.7140    -0.6910    -0.6520 ce         1 7ZU      -0.192000
     21 C6           4.1260    -0.8730    -0.3760 ce         1 7ZU      -0.162000
     22 C5           5.0960     0.0430    -0.5420 cf         1 7ZU      -0.066200
     23 C10          4.8930     1.3970    -1.0890 cf         1 7ZU      -0.125200
     24 C4           6.5180    -0.2320    -0.1340 c6         1 7ZU      -0.073200
     25 C3           7.0490     0.8540     0.8050 c6         1 7ZU       0.175300
     26 O2           8.4200     0.6700     1.0920 oh         1 7ZU      -0.661000
     27 C2           6.8930     2.2220     0.1580 c6         1 7ZU      -0.065400
     28 C28         -5.6940     2.0050    -1.6960 c3         1 7ZU      -0.079100
     29 C1           5.4490     2.5110    -0.2300 c6         1 7ZU       0.211500
     30 O1           4.7010     2.6270     0.9660 oh         1 7ZU      -0.656000
     31 C19          4.3050     1.6530    -2.2560 c2         1 7ZU      -0.296000
     32 H1          -7.4580    -0.3750     0.9650 ho         1 7ZU       0.440000
     33 H2          -9.3790     1.8530     0.1600 hc         1 7ZU       0.040867
     34 H3          -8.5120     2.2680    -1.3120 hc         1 7ZU       0.040867
     35 H4          -8.8410     0.5780    -0.9380 hc         1 7ZU       0.040867
     36 H5          -5.9810     2.7600     1.4600 hc         1 7ZU       0.040867
     37 H6          -6.9010     3.5800     0.1990 hc         1 7ZU       0.040867
     38 H7          -7.7110     3.0320     1.6590 hc         1 7ZU       0.040867
     39 H8          -6.5070     0.0900    -1.2110 hc         1 7ZU       0.042700
     40 H9          -4.4460     1.2360     0.7620 ha         1 7ZU       0.172000
     41 H10         -4.8110    -1.4440    -0.6430 ha         1 7ZU       0.162000
     42 H11         -2.8730    -0.3290     1.4600 hc         1 7ZU       0.051700
     43 H12         -3.5720    -3.2630     0.9380 hc         1 7ZU       0.034700
     44 H13         -2.6620    -2.6130     2.2990 hc         1 7ZU       0.034700
     45 H14         -4.3740    -2.2550     2.1440 hc         1 7ZU       0.034700
     46 H15         -2.2540    -2.0980    -0.9330 hc         1 7ZU       0.044700
     47 H16         -2.2460     0.0100    -1.9340 hc         1 7ZU       0.042200
     48 H17         -1.9890     0.8600    -0.4390 hc         1 7ZU       0.042200
     49 H18         -0.4140     0.1570     1.4370 hc         1 7ZU       0.035033
     50 H19         -0.8170    -1.2240     2.4440 hc         1 7ZU       0.035033
     51 H20          0.8240    -1.0120     1.8540 hc         1 7ZU       0.035033
     52 H21          0.0200    -2.0510    -1.6660 hc         1 7ZU       0.052700
     53 H22          0.0930     0.2490    -2.3100 hc         1 7ZU       0.043200
     54 H23          0.3180     0.8020    -0.6640 hc         1 7ZU       0.043200
     55 H24         -0.9840    -3.5640     1.4680 hc         1 7ZU       0.040700
     56 H25         -0.7680    -3.7890    -0.2550 hc         1 7ZU       0.040700
     57 H26          1.4040    -3.1550     1.8020 hc         1 7ZU       0.041200
     58 H27          1.1790    -4.6630     0.9530 hc         1 7ZU       0.041200
     59 H28          3.0340    -3.2950    -0.0050 hc         1 7ZU       0.046200
     60 H29          1.7880    -3.6750    -1.1730 hc         1 7ZU       0.046200
     61 H31          2.4100     0.3130    -0.9250 ha         1 7ZU       0.174000
     62 H32          4.4340    -1.8300     0.0350 ha         1 7ZU       0.170000
     63 H34          6.5930    -1.2150     0.3400 hc         1 7ZU       0.051700
     64 H35          7.1600    -0.2470    -1.0230 hc         1 7ZU       0.051700
     65 H36          6.4580     0.8280     1.7310 h1         1 7ZU       0.050700
     66 H37          8.5140    -0.1490     1.5870 ho         1 7ZU       0.441000
     67 H38          7.2570     3.0070     0.8270 hc         1 7ZU       0.062200
     68 H39          7.5070     2.2620    -0.7480 hc         1 7ZU       0.062200
     69 H40         -5.1390     2.8240    -1.2350 hc         1 7ZU       0.035700
     70 H41         -5.0380     1.5500    -2.4390 hc         1 7ZU       0.035700
     71 H42         -6.5440     2.4350    -2.2260 hc         1 7ZU       0.035700
     72 H43          5.4170     3.4480    -0.8010 h1         1 7ZU       0.036700
     73 H44          3.7750     2.7460     0.7290 ho         1 7ZU       0.444000
     74 H45          3.9230     0.8650    -2.8920 ha         1 7ZU       0.168500
     75 H46          4.1990     2.6690    -2.6200 ha         1 7ZU       0.168500
@<TRIPOS>BOND
     1     1     2 1   
     2     1    32 1   
     3     2     3 1   
     4     2     4 1   
     5     2     5 1   
     6     3    33 1   
     7     3    34 1   
     8     3    35 1   
     9     4    36 1   
    10     4    37 1   
    11     4    38 1   
    12     5     6 1   
    13     5    28 1   
    14     5    39 1   
    15     6     7 2   
    16     6    40 1   
    17     7     8 1   
    18     7    41 1   
    19     8     9 1   
    20     8    10 1   
    21     8    42 1   
    22     9    43 1   
    23     9    44 1   
    24     9    45 1   
    25    10    11 1   
    26    10    12 1   
    27    10    46 1   
    28    11    15 1   
    29    11    47 1   
    30    11    48 1   
    31    12    13 1   
    32    12    14 1   
    33    12    16 1   
    34    13    49 1   
    35    13    50 1   
    36    13    51 1   
    37    14    15 1   
    38    14    19 1   
    39    14    52 1   
    40    15    53 1   
    41    15    54 1   
    42    16    17 1   
    43    16    55 1   
    44    16    56 1   
    45    17    18 1   
    46    17    57 1   
    47    17    58 1   
    48    18    19 1   
    49    18    59 1   
    50    18    60 1   
    51    19    20 2   
    52    20    21 1   
    53    20    61 1   
    54    21    22 2   
    55    21    62 1   
    56    22    23 1   
    57    22    24 1   
    58    23    29 1   
    59    23    31 2   
    60    24    25 1   
    61    24    63 1   
    62    24    64 1   
    63    25    26 1   
    64    25    27 1   
    65    25    65 1   
    66    26    66 1   
    67    27    29 1   
    68    27    67 1   
    69    27    68 1   
    70    28    69 1   
    71    28    70 1   
    72    28    71 1   
    73    29    30 1   
    74    29    72 1   
    75    30    73 1   
    76    31    74 1   
    77    31    75 1   
@<TRIPOS>SUBSTRUCTURE
     1 7ZU         1 TEMP              0 ****  ****    0 ROOT
