@<TRIPOS>MOLECULE
7ZV
   30    31     1     0     0
SMALL
bcc


@<TRIPOS>ATOM
      1 C7           3.4910     1.8800    -1.1650 ca         1 7ZV      -0.183000
      2 C6           2.2580     2.5050    -1.1370 ca         1 7ZV      -0.090000
      3 C9           2.6180     0.1910     0.2880 ca         1 7ZV      -0.037100
      4 C8           3.6730     0.7200    -0.4310 ca         1 7ZV      -0.090000
      5 C2          -1.4600    -0.4920    -0.4530 ca         1 7ZV       0.032700
      6 C3          -1.0380     0.1970     0.6870 ca         1 7ZV       0.085600
      7 C5           1.2140     1.9750    -0.3950 ca         1 7ZV      -0.037100
      8 C10         -1.9680     0.8270     1.4980 ca         1 7ZV      -0.068000
      9 C11         -3.3180     0.8190     1.1880 ca         1 7ZV      -0.254000
     10 C12         -3.7440     0.1680     0.0350 ca         1 7ZV       0.127100
     11 CL1          2.9030    -1.2710     1.1840 cl         1 7ZV      -0.104900
     12 CL          -0.2560     2.8930    -0.3530 cl         1 7ZV      -0.104900
     13 C4           1.3370     0.7770     0.3300 ca         1 7ZV       0.219600
     14 N            0.3330     0.2100     1.0820 nu         1 7ZV      -0.609000
     15 O2          -5.0390     0.1310    -0.3460 oh         1 7ZV      -0.508100
     16 C13         -2.8140    -0.4840    -0.7700 ca         1 7ZV      -0.170000
     17 C           -0.0020    -2.5880    -0.6370 c          1 7ZV       0.935600
     18 O1           0.6620    -3.3320    -1.3820 o          1 7ZV      -0.828300
     19 O           -0.2950    -2.7870     0.5560 o          1 7ZV      -0.828300
     20 H1           4.3040     2.2970    -1.7420 ha         1 7ZV       0.124000
     21 H2           2.1000     3.4250    -1.6840 ha         1 7ZV       0.133500
     22 H3           4.6310     0.2180    -0.4220 ha         1 7ZV       0.133500
     23 H4          -0.9870    -1.5340    -2.2460 hc         1 7ZV       0.042200
     24 H5           0.3700    -0.6820    -1.5720 hc         1 7ZV       0.042200
     25 H6          -1.6270     1.3460     2.3840 ha         1 7ZV       0.125000
     26 H7          -4.0280     1.3260     1.8320 ha         1 7ZV       0.112000
     27 H8           0.5980    -0.6830     1.4750 hn         1 7ZV       0.457800
     28 H9          -5.5870     0.6010     0.2920 ho         1 7ZV       0.408000
     29 H10         -3.1580    -1.0050    -1.6560 ha         1 7ZV       0.140000
     30 C1          -0.5080    -1.2770    -1.2980 c3         1 7ZV      -0.206100
@<TRIPOS>BOND
     1     1     2 ar  
     2     1     4 ar  
     3     1    20 1   
     4     2     7 ar  
     5     2    21 1   
     6     3     4 ar  
     7     3    11 1   
     8     3    13 ar  
     9     4    22 1   
    10     5     6 ar  
    11     5    16 ar  
    12     5    30 1   
    13     6     8 ar  
    14     6    14 1   
    15     7    12 1   
    16     7    13 ar  
    17     8     9 ar  
    18     8    25 1   
    19     9    10 ar  
    20     9    26 1   
    21    10    15 1   
    22    10    16 ar  
    23    13    14 1   
    24    14    27 1   
    25    15    28 1   
    26    16    29 1   
    27    17    18 1   
    28    17    19 1   
    29    17    30 1   
    30    23    30 1   
    31    24    30 1   
@<TRIPOS>SUBSTRUCTURE
     1 7ZV         1 TEMP              0 ****  ****    0 ROOT
