@<TRIPOS>MOLECULE
7ZV
   30    31     1     0     0
SMALL
No Charge or Current Charge


@<TRIPOS>ATOM
      1 C7           3.5550     2.7900     0.3720 ca         1 7ZV      -0.165000
      2 C6           2.4360     3.1260    -0.4040 ca         1 7ZV      -0.072000
      3 C9           2.6520     0.5520     0.7040 ca         1 7ZV       0.054500
      4 C8           3.6650     1.5030     0.9210 ca         1 7ZV      -0.072000
      5 C2          -1.7010    -1.0370    -0.8270 ca         1 7ZV       0.032700
      6 C3          -0.9010    -0.0550    -0.1770 ca         1 7ZV       0.224000
      7 C5           1.4150     2.1840    -0.6280 ca         1 7ZV       0.054500
      8 C10         -1.5290     0.9430     0.6000 ca         1 7ZV      -0.050000
      9 C11         -2.9280     0.9820     0.7270 ca         1 7ZV      -0.236000
     10 C12         -3.7110     0.0190     0.0810 ca         1 7ZV       0.127100
     11 Cl1          2.8430    -1.0460     1.4360 cl         1 7ZV      -0.196500
     12 Cl           0.0760     2.6720    -1.6800 cl         1 7ZV      -0.196500
     13 C4           1.5040     0.8800    -0.0620 ca         1 7ZV       0.358000
     14 N            0.5000    -0.0920    -0.2640 nu         1 7ZV      -0.941000
     15 O2          -5.0650     0.0550     0.2030 oh         1 7ZV      -0.547100
     16 C13         -3.1050    -0.9830    -0.6890 ca         1 7ZV      -0.152000
     17 C           -0.3210    -3.1350    -0.8360 c          1 7ZV       0.725000
     18 O1          -0.9470    -4.0580    -0.3390 o          1 7ZV      -0.723000
     19 O            0.8470    -2.8870    -0.5770 o          1 7ZV      -0.723000
     20 H1           4.3410     3.5230     0.5410 ha         1 7ZV       0.106000
     21 H2           2.3610     4.1180    -0.8430 ha         1 7ZV       0.115500
     22 H3           4.5350     1.2410     1.5180 ha         1 7ZV       0.115500
     23 H4          -1.9000    -2.6450    -2.2240 hc         1 7ZV       0.042200
     24 H5          -0.3930    -1.6340    -2.3990 hc         1 7ZV       0.042200
     25 H6          -0.9280     1.6870     1.1150 ha         1 7ZV       0.107000
     26 H7          -3.3910     1.7590     1.3300 ha         1 7ZV       0.094000
     27 H8           0.8660    -1.0550    -0.3410 hn         1 7ZV       0.513000
     28 H9          -5.3010     0.8170     0.7740 ho         1 7ZV       0.447000
     29 H10         -3.7300    -1.7210    -1.1840 ha         1 7ZV       0.122000
     30 C1          -1.0820    -2.1310    -1.7060 c3         1 7ZV      -0.206100
@<TRIPOS>BOND
     1     1     2 ar  
     2     1     4 ar  
     3     1    20 1   
     4     2     7 ar  
     5     2    21 1   
     6     3     4 ar  
     7     3    11 1   
     8     3    13 ar  
     9     4    22 1   
    10     5     6 ar  
    11     5    16 ar  
    12     5    30 1   
    13     6     8 ar  
    14     6    14 1   
    15     7    12 1   
    16     7    13 ar  
    17     8     9 ar  
    18     8    25 1   
    19     9    10 ar  
    20     9    26 1   
    21    10    15 1   
    22    10    16 ar  
    23    13    14 1   
    24    14    27 1   
    25    15    28 1   
    26    16    29 1   
    27    17    18 1   
    28    17    19 1   
    29    17    30 1   
    30    23    30 1   
    31    24    30 1   
@<TRIPOS>SUBSTRUCTURE
     1 7ZV         1 TEMP              0 ****  ****    0 ROOT
