@<TRIPOS>MOLECULE
7ZW
   43    44     1     0     0
SMALL
No Charge or Current Charge


@<TRIPOS>ATOM
      1 F2          -2.5890   -21.7280   -35.4410 f          1 7ZW      -0.115000
      2 C13         -1.4450   -22.4220   -35.2490 c3         1 7ZW       0.361300
      3 F           -1.5180   -22.9730   -34.0160 f          1 7ZW      -0.115000
      4 F1          -1.4530   -23.4490   -36.1300 f          1 7ZW      -0.115000
      5 C12         -0.2150   -21.5230   -35.4140 ca         1 7ZW      -0.229300
      6 C11          0.3220   -20.8310   -34.3100 ca         1 7ZW      -0.029500
      7 C10          1.4440   -20.0000   -34.4680 ca         1 7ZW      -0.160500
      8 C14          0.3840   -21.3530   -36.6800 ca         1 7ZW      -0.029500
      9 C15          1.5060   -20.5200   -36.8340 ca         1 7ZW      -0.160500
     10 C9           2.0510   -19.8370   -35.7260 ca         1 7ZW       0.015000
     11 N2           3.1820   -18.9780   -35.8040 ns         1 7ZW      -0.143000
     12 C            4.0340   -18.6440   -36.8500 c          1 7ZW       0.593100
     13 O            3.9410   -19.0950   -37.9870 o          1 7ZW      -0.562100
     14 C1           5.1340   -17.6400   -36.4500 c3         1 7ZW       0.028000
     15 N            6.0650   -17.2610   -37.5510 n          1 7ZW      -0.376400
     16 C8           5.8420   -16.1830   -38.3680 c          1 7ZW       0.622000
     17 O1           4.9140   -15.3970   -38.3020 o          1 7ZW      -0.546000
     18 N1           6.8540   -16.1410   -39.2760 ns         1 7ZW      -0.516900
     19 C3           7.8140   -17.2530   -39.0840 c5         1 7ZW       0.033700
     20 C2           7.1870   -18.0060   -37.8660 c          1 7ZW       0.567000
     21 O2           7.5550   -19.0240   -37.2940 o          1 7ZW      -0.497000
     22 C4           7.9480   -18.1780   -40.3220 c3         1 7ZW      -0.083400
     23 C5           8.4630   -17.4950   -41.6190 c3         1 7ZW      -0.060700
     24 C7           8.4450   -18.4810   -42.8090 c3         1 7ZW      -0.090600
     25 C6           9.8670   -16.8680   -41.4450 c3         1 7ZW      -0.090600
     26 H1          -0.1280   -20.9310   -33.3230 ha         1 7ZW       0.130500
     27 H2           1.8420   -19.4780   -33.6010 ha         1 7ZW       0.135500
     28 H3          -0.0190   -21.8620   -37.5530 ha         1 7ZW       0.130500
     29 H4           1.9310   -20.4190   -37.8270 ha         1 7ZW       0.135500
     30 H5           3.4040   -18.5230   -34.9290 hn         1 7ZW       0.154000
     31 H6           5.7040   -18.0840   -35.6240 h1         1 7ZW       0.088700
     32 H7           4.6390   -16.7430   -36.0600 h1         1 7ZW       0.088700
     33 H8           6.8780   -15.4080   -39.9750 hn         1 7ZW       0.355500
     34 H9           8.8020   -16.8890   -38.7730 h1         1 7ZW       0.086700
     35 H10          6.9690   -18.6280   -40.5330 hc         1 7ZW       0.068200
     36 H11          8.6160   -19.0130   -40.0750 hc         1 7ZW       0.068200
     37 H12          7.7700   -16.6820   -41.8700 hc         1 7ZW       0.044700
     38 H13          7.4370   -18.8810   -42.9670 hc         1 7ZW       0.036200
     39 H14          8.7580   -17.9800   -43.7330 hc         1 7ZW       0.036200
     40 H15          9.1250   -19.3230   -42.6290 hc         1 7ZW       0.036200
     41 H16          9.8560   -16.0750   -40.6880 hc         1 7ZW       0.036200
     42 H17         10.5990   -17.6270   -41.1410 hc         1 7ZW       0.036200
     43 H18         10.2090   -16.4210   -42.3860 hc         1 7ZW       0.036200
@<TRIPOS>BOND
     1     1     2 1   
     2     2     3 1   
     3     2     4 1   
     4     2     5 1   
     5     5     6 ar  
     6     5     8 ar  
     7     6     7 ar  
     8     6    26 1   
     9     7    10 ar  
    10     7    27 1   
    11     8     9 ar  
    12     8    28 1   
    13     9    10 ar  
    14     9    29 1   
    15    10    11 1   
    16    11    12 1   
    17    11    30 1   
    18    12    13 2   
    19    12    14 1   
    20    14    15 1   
    21    14    31 1   
    22    14    32 1   
    23    15    16 1   
    24    15    20 1   
    25    16    17 2   
    26    16    18 1   
    27    18    19 1   
    28    18    33 1   
    29    19    20 1   
    30    19    22 1   
    31    19    34 1   
    32    20    21 2   
    33    22    23 1   
    34    22    35 1   
    35    22    36 1   
    36    23    24 1   
    37    23    25 1   
    38    23    37 1   
    39    24    38 1   
    40    24    39 1   
    41    24    40 1   
    42    25    41 1   
    43    25    42 1   
    44    25    43 1   
@<TRIPOS>SUBSTRUCTURE
     1 7ZW         1 TEMP              0 ****  ****    0 ROOT
