@<TRIPOS>MOLECULE
7ZW
   43    44     1     0     0
SMALL
bcc


@<TRIPOS>ATOM
      1 F2          -2.2310   -21.6340   -36.3590 f          1 7ZW      -0.236300
      2 C13         -1.1840   -22.2540   -35.7880 c3         1 7ZW       0.725200
      3 F           -1.5750   -22.6110   -34.5600 f          1 7ZW      -0.236300
      4 F1          -0.9920   -23.3840   -36.4830 f          1 7ZW      -0.236300
      5 C12          0.0330   -21.3900   -35.7720 ca         1 7ZW      -0.229300
      6 C11          0.3710   -20.6510   -34.6440 ca         1 7ZW      -0.047500
      7 C10          1.4790   -19.8270   -34.6620 ca         1 7ZW      -0.178500
      8 C14          0.8190   -21.2820   -36.9120 ca         1 7ZW      -0.047500
      9 C15          1.9320   -20.4570   -36.9400 ca         1 7ZW      -0.178500
     10 C9           2.2740   -19.7190   -35.8050 ca         1 7ZW       0.107600
     11 N2           3.3730   -18.8660   -35.7250 ns         1 7ZW      -0.469100
     12 C            4.3130   -18.5890   -36.6600 c          1 7ZW       0.660100
     13 O            4.3380   -19.0360   -37.7870 o          1 7ZW      -0.562100
     14 C1           5.3950   -17.6420   -36.1530 c3         1 7ZW       0.028000
     15 N            6.2320   -17.2240   -37.2320 n          1 7ZW      -0.510400
     16 C8           5.8450   -16.2220   -38.1320 c          1 7ZW       0.831500
     17 O1           4.8710   -15.5180   -37.9890 o          1 7ZW      -0.621500
     18 N1           6.7560   -16.2230   -39.1180 ns         1 7ZW      -0.583900
     19 C3           7.7580   -17.2510   -38.9710 c5         1 7ZW       0.033700
     20 C2           7.3300   -17.9050   -37.6720 c          1 7ZW       0.709500
     21 O2           7.8420   -18.8550   -37.1320 o          1 7ZW      -0.572500
     22 C4           7.7660   -18.2680   -40.1110 c3         1 7ZW      -0.083400
     23 C5           8.0270   -17.6640   -41.4920 c3         1 7ZW      -0.060700
     24 C7           7.9350   -18.7560   -42.5520 c3         1 7ZW      -0.090600
     25 C6           9.3750   -16.9540   -41.5720 c3         1 7ZW      -0.090600
     26 H1          -0.2180   -20.7070   -33.7380 ha         1 7ZW       0.148500
     27 H2           1.7320   -19.2600   -33.7740 ha         1 7ZW       0.153500
     28 H3           0.5790   -21.8430   -37.8050 ha         1 7ZW       0.148500
     29 H4           2.5180   -20.4020   -37.8420 ha         1 7ZW       0.153500
     30 H5           3.4790   -18.3960   -34.8370 hn         1 7ZW       0.320500
     31 H6           6.0030   -18.1530   -35.4040 h1         1 7ZW       0.088700
     32 H7           4.9530   -16.7720   -35.6660 h1         1 7ZW       0.088700
     33 H8           6.7400   -15.5480   -39.8640 hn         1 7ZW       0.355500
     34 H9           8.7520   -16.8140   -38.8350 h1         1 7ZW       0.086700
     35 H10          6.8040   -18.7900   -40.1210 hc         1 7ZW       0.068200
     36 H11          8.5330   -19.0170   -39.8910 hc         1 7ZW       0.068200
     37 H12          7.2370   -16.9330   -41.7000 hc         1 7ZW       0.044700
     38 H13          6.9700   -19.2660   -42.5210 hc         1 7ZW       0.036200
     39 H14          8.0600   -18.3410   -43.5530 hc         1 7ZW       0.036200
     40 H15          8.7150   -19.5060   -42.4040 hc         1 7ZW       0.036200
     41 H16          9.4570   -16.1260   -40.8660 hc         1 7ZW       0.036200
     42 H17         10.1940   -17.6480   -41.3670 hc         1 7ZW       0.036200
     43 H18          9.5330   -16.5430   -42.5700 hc         1 7ZW       0.036200
@<TRIPOS>BOND
     1     1     2 1   
     2     2     3 1   
     3     2     4 1   
     4     2     5 1   
     5     5     6 ar  
     6     5     8 ar  
     7     6     7 ar  
     8     6    26 1   
     9     7    10 ar  
    10     7    27 1   
    11     8     9 ar  
    12     8    28 1   
    13     9    10 ar  
    14     9    29 1   
    15    10    11 1   
    16    11    12 1   
    17    11    30 1   
    18    12    13 2   
    19    12    14 1   
    20    14    15 1   
    21    14    31 1   
    22    14    32 1   
    23    15    16 1   
    24    15    20 1   
    25    16    17 2   
    26    16    18 1   
    27    18    19 1   
    28    18    33 1   
    29    19    20 1   
    30    19    22 1   
    31    19    34 1   
    32    20    21 2   
    33    22    23 1   
    34    22    35 1   
    35    22    36 1   
    36    23    24 1   
    37    23    25 1   
    38    23    37 1   
    39    24    38 1   
    40    24    39 1   
    41    24    40 1   
    42    25    41 1   
    43    25    42 1   
    44    25    43 1   
@<TRIPOS>SUBSTRUCTURE
     1 7ZW         1 TEMP              0 ****  ****    0 ROOT
