@<TRIPOS>MOLECULE
7ZX
    8     8     1     0     0
SMALL
No Charge or Current Charge


@<TRIPOS>ATOM
      1 N1          -2.9150    43.7770     7.8100 nc         1 7ZX      -0.352300
      2 C3          -4.9890    43.8140     8.7860 cc         1 7ZX       0.208900
      3 Br1         -5.7670    41.0000     8.7430 br         1 7ZX      -0.024100
      4 C1          -4.6940    42.5260     8.4620 cd         1 7ZX      -0.185900
      5 C2          -3.4180    42.5560     7.8690 cd         1 7ZX       0.284900
      6 O1          -3.9340    44.6100     8.4070 os         1 7ZX      -0.061700
      7 H1          -5.8450    44.2800     9.2540 h4         1 7ZX       0.071100
      8 H2          -2.8440    41.7250     7.4790 h4         1 7ZX       0.059100
@<TRIPOS>BOND
     1     1     5 2   
     2     1     6 1   
     3     2     4 2   
     4     2     6 1   
     5     2     7 1   
     6     3     4 1   
     7     4     5 1   
     8     5     8 1   
@<TRIPOS>SUBSTRUCTURE
     1 7ZX         1 TEMP              0 ****  ****    0 ROOT
