@<TRIPOS>MOLECULE
7ZX
    8     8     1     0     0
SMALL
bcc


@<TRIPOS>ATOM
      1 N1          -2.9750    43.7820     7.8380 nc         1 7ZX      -0.352300
      2 C3          -4.9680    43.8020     8.7750 cc         1 7ZX       0.318600
      3 BR1         -5.7660    41.0240     8.7450 br         1 7ZX      -0.024100
      4 C1          -4.7040    42.5130     8.4640 cd         1 7ZX      -0.316500
      5 C2          -3.4190    42.5630     7.8700 cd         1 7ZX       0.350200
      6 O1          -3.9400    44.5570     8.4020 os         1 7ZX      -0.106100
      7 H1          -5.8090    44.2940     9.2400 h4         1 7ZX       0.071100
      8 H2          -2.8260    41.7520     7.4760 h4         1 7ZX       0.059100
@<TRIPOS>BOND
     1     1     5 2   
     2     1     6 1   
     3     2     4 2   
     4     2     6 1   
     5     2     7 1   
     6     3     4 1   
     7     4     5 1   
     8     5     8 1   
@<TRIPOS>SUBSTRUCTURE
     1 7ZX         1 TEMP              0 ****  ****    0 ROOT
