@<TRIPOS>MOLECULE
7ZZ
   39    41     1     0     0
SMALL
No Charge or Current Charge


@<TRIPOS>ATOM
      1 C2           1.1890    21.6490   -12.4160 ca         1 7ZZ       0.289000
      2 C4           1.4920    20.8940   -10.2840 ca         1 7ZZ       0.135500
      3 C5           1.0540    22.0990    -9.7930 ca         1 7ZZ      -0.105600
      4 C6           0.6770    23.0920   -10.7200 ca         1 7ZZ       0.467900
      5 N9           1.7750    20.1500    -9.1750 na         1 7ZZ      -0.276300
      6 FAU         -1.6340    15.6340    -3.7490 f          1 7ZZ      -0.115500
      7 CAT         -1.9080    15.3220    -5.0370 c3         1 7ZZ       0.180300
      8 FAV         -1.7170    13.9890    -5.1770 f          1 7ZZ      -0.115500
      9 CAS         -0.9630    16.1010    -5.9750 c3         1 7ZZ       0.098600
     10 CAP         -0.6680    16.3600    -8.4150 ca         1 7ZZ       0.145100
     11 CAQ          0.4190    17.2470    -8.2640 ca         1 7ZZ      -0.178000
     12 CAO         -1.1080    16.0150    -9.7010 ca         1 7ZZ      -0.122000
     13 CAN         -0.4820    16.5390   -10.8420 ca         1 7ZZ       0.119100
     14 OAW         -0.9850    16.1570   -12.0740 os         1 7ZZ      -0.391100
     15 CAY         -0.4870    16.6380   -13.3420 c3         1 7ZZ       0.385300
     16 FAZ         -0.5770    17.9870   -13.4270 f          1 7ZZ      -0.129000
     17 FBA          0.8140    16.3100   -13.5180 f          1 7ZZ      -0.129000
     18 CAM          0.6110    17.4210   -10.6850 ca         1 7ZZ      -0.100000
     19 CAL          1.0610    17.7780    -9.3990 ca         1 7ZZ      -0.079300
     20 CAK          2.2220    18.7510    -9.2400 c3         1 7ZZ       0.133900
     21 C8           1.5010    20.9170    -8.0420 cc         1 7ZZ       0.400700
     22 N7           1.0550    22.1400    -8.3910 nd         1 7ZZ      -0.543100
     23 N3           1.5720    20.6380   -11.6030 nb         1 7ZZ      -0.208000
     24 Cl2          1.2760    21.3400   -14.1430 cl         1 7ZZ      -0.134000
     25 N1           0.7450    22.8720   -12.0420 nb         1 7ZZ      -0.293000
     26 N6           0.2320    24.3180   -10.3370 nv         1 7ZZ      -1.056900
     27 H1          -2.9540    15.5660    -5.2530 h2         1 7ZZ       0.075700
     28 H2           0.0730    15.7980    -5.7780 h1         1 7ZZ       0.060700
     29 H3          -1.0600    17.1750    -5.7690 h1         1 7ZZ       0.060700
     30 H4           0.7740    17.5350    -7.2790 ha         1 7ZZ       0.116000
     31 H5          -1.9480    15.3350    -9.8150 ha         1 7ZZ       0.148000
     32 H6          -1.0660    16.2030   -14.1640 h3         1 7ZZ       0.105700
     33 H7           1.1180    17.8430   -11.5470 ha         1 7ZZ       0.153000
     34 H8           2.7770    18.5130    -8.3230 h1         1 7ZZ       0.073700
     35 H9           2.9200    18.6360   -10.0790 h1         1 7ZZ       0.073700
     36 H10          1.6360    20.5410    -7.0350 h5         1 7ZZ       0.064800
     37 H11          0.2640    25.0710   -11.0190 hn         1 7ZZ       0.511500
     38 H12          0.3800    24.5780    -9.3640 hn         1 7ZZ       0.511500
     39 OAR         -1.3330    15.8110    -7.3380 os         1 7ZZ      -0.334100
@<TRIPOS>BOND
     1     1    23 ar  
     2     1    24 1   
     3     1    25 ar  
     4     2     3 ar  
     5     2     5 1   
     6     2    23 ar  
     7     3     4 ar  
     8     3    22 1   
     9     4    25 ar  
    10     4    26 1   
    11     5    20 1   
    12     5    21 1   
    13     6     7 1   
    14     7     8 1   
    15     7     9 1   
    16     7    27 1   
    17     9    28 1   
    18     9    29 1   
    19     9    39 1   
    20    10    11 ar  
    21    10    12 ar  
    22    10    39 1   
    23    11    19 ar  
    24    11    30 1   
    25    12    13 ar  
    26    12    31 1   
    27    13    14 1   
    28    13    18 ar  
    29    14    15 1   
    30    15    16 1   
    31    15    17 1   
    32    15    32 1   
    33    18    19 ar  
    34    18    33 1   
    35    19    20 1   
    36    20    34 1   
    37    20    35 1   
    38    21    22 2   
    39    21    36 1   
    40    26    37 1   
    41    26    38 1   
@<TRIPOS>SUBSTRUCTURE
     1 7ZZ         1 TEMP              0 ****  ****    0 ROOT
