@<TRIPOS>MOLECULE
7ZZ
   39    41     1     0     0
SMALL
abcg2


@<TRIPOS>ATOM
      1 C2           1.2710    21.4650   -12.2740 ca         1 7ZZ       0.289000
      2 C4           1.6130    20.8130   -10.2250 ca         1 7ZZ       0.135500
      3 C5           1.1250    22.0020    -9.7070 ca         1 7ZZ      -0.105600
      4 C6           0.6910    22.9580   -10.6460 ca         1 7ZZ       0.467900
      5 N9           1.9670    20.0670    -9.1450 na         1 7ZZ      -0.276300
      6 FAU         -1.9480    16.0190    -4.1150 f          1 7ZZ      -0.115500
      7 CAT         -2.1190    15.6540    -5.4140 c3         1 7ZZ       0.180300
      8 FAV         -1.9720    14.3040    -5.4720 f          1 7ZZ      -0.115500
      9 CAS         -1.0600    16.3330    -6.2490 c3         1 7ZZ       0.098600
     10 CAP         -0.4880    16.4180    -8.5500 ca         1 7ZZ       0.145100
     11 CAQ          0.5700    17.2920    -8.3290 ca         1 7ZZ      -0.178000
     12 CAO         -0.7770    15.9850    -9.8450 ca         1 7ZZ      -0.122000
     13 CAN          0.0130    16.4220   -10.8890 ca         1 7ZZ       0.119100
     14 OAW         -0.2400    15.9460   -12.1630 os         1 7ZZ      -0.391100
     15 CAY         -1.0410    16.6890   -12.9650 c3         1 7ZZ       0.385300
     16 FAZ         -2.2670    16.8530   -12.4160 f          1 7ZZ      -0.129000
     17 FBA         -0.5500    17.9400   -13.1340 f          1 7ZZ      -0.129000
     18 CAM          1.0820    17.2820   -10.6860 ca         1 7ZZ      -0.100000
     19 CAL          1.3500    17.7190    -9.4000 ca         1 7ZZ      -0.079300
     20 CAK          2.4640    18.7040    -9.1570 c3         1 7ZZ       0.133900
     21 C8           1.6710    20.8260    -8.0480 cc         1 7ZZ       0.400700
     22 N7           1.1710    21.9910    -8.3390 nd         1 7ZZ      -0.543100
     23 N3           1.7120    20.4920   -11.5170 nb         1 7ZZ      -0.208000
     24 CL2          1.3430    21.1600   -13.9830 cl         1 7ZZ      -0.134000
     25 N1           0.7800    22.6430   -11.9460 nb         1 7ZZ      -0.293000
     26 N6           0.2020    24.1450   -10.3010 nv         1 7ZZ      -1.056900
     27 H1          -3.1360    15.9040    -5.7190 h2         1 7ZZ       0.075700
     28 H2          -0.0640    16.0340    -5.9020 h1         1 7ZZ       0.060700
     29 H3          -1.1580    17.4170    -6.1290 h1         1 7ZZ       0.060700
     30 H4           0.8110    17.6450    -7.3340 ha         1 7ZZ       0.116000
     31 H5          -1.5960    15.2980   -10.0170 ha         1 7ZZ       0.148000
     32 H6          -1.1280    16.1920   -13.9280 h3         1 7ZZ       0.105700
     33 H7           1.6970    17.6030   -11.5160 ha         1 7ZZ       0.153000
     34 H8           2.9430    18.5240    -8.1950 h1         1 7ZZ       0.073700
     35 H9           3.2320    18.6220    -9.9260 h1         1 7ZZ       0.073700
     36 H10          1.8590    20.4550    -7.0500 h5         1 7ZZ       0.064800
     37 H11         -0.1030    24.7960   -11.0050 hn         1 7ZZ       0.511500
     38 H12          0.1170    24.4100    -9.3350 hn         1 7ZZ       0.511500
     39 OAR         -1.2910    15.9380    -7.5810 os         1 7ZZ      -0.334100
@<TRIPOS>BOND
     1     1    23 ar  
     2     1    24 1   
     3     1    25 ar  
     4     2     3 ar  
     5     2     5 1   
     6     2    23 ar  
     7     3     4 ar  
     8     3    22 1   
     9     4    25 ar  
    10     4    26 1   
    11     5    20 1   
    12     5    21 1   
    13     6     7 1   
    14     7     8 1   
    15     7     9 1   
    16     7    27 1   
    17     9    28 1   
    18     9    29 1   
    19     9    39 1   
    20    10    11 ar  
    21    10    12 ar  
    22    10    39 1   
    23    11    19 ar  
    24    11    30 1   
    25    12    13 ar  
    26    12    31 1   
    27    13    14 1   
    28    13    18 ar  
    29    14    15 1   
    30    15    16 1   
    31    15    17 1   
    32    15    32 1   
    33    18    19 ar  
    34    18    33 1   
    35    19    20 1   
    36    20    34 1   
    37    20    35 1   
    38    21    22 2   
    39    21    36 1   
    40    26    37 1   
    41    26    38 1   
@<TRIPOS>SUBSTRUCTURE
     1 7ZZ         1 TEMP              0 ****  ****    0 ROOT
