@<TRIPOS>MOLECULE
300
   22    22     1     0     0
SMALL
No Charge or Current Charge


@<TRIPOS>ATOM
      1 C1          -2.1050     0.3290     1.8480 ca         1 300      -0.064000
      2 C2          -1.2290     0.5860     2.9120 ca         1 300      -0.206000
      3 C3           0.1470     0.3500     2.7740 ca         1 300      -0.184000
      4 C4           0.6620    -0.1320     1.5480 ca         1 300       0.057100
      5 C5          -0.2220    -0.3560     0.4600 ca         1 300       0.309100
      6 C6          -1.6110    -0.1570     0.6180 ca         1 300      -0.265600
      7 C10         -2.5550    -0.4790    -0.5070 c          1 300       0.668500
      8 O11          0.2720    -0.8290    -0.7270 os         1 300      -0.412500
      9 O12          2.0120    -0.4110     1.3900 os         1 300      -0.282100
     10 C13          2.9700    -0.2140     2.4430 c3         1 300       0.159900
     11 P17          0.7160     0.1490    -1.9300 p5         1 300       1.238900
     12 O18          1.3290    -0.6630    -3.0170 o          1 300      -0.884500
     13 O19          1.6980     1.1610    -1.4520 o          1 300      -0.884500
     14 O20         -0.4840     0.8530    -2.4620 o          1 300      -0.884500
     15 O21         -3.7620    -0.2410    -0.4540 o          1 300      -0.636100
     16 H1          -3.1710     0.4970     1.9870 ha         1 300       0.092000
     17 H2          -1.6210     0.9550     3.8560 ha         1 300       0.064000
     18 H3           0.7930     0.5410     3.6260 ha         1 300       0.070000
     19 H10         -2.1230    -0.9750    -1.4030 h4         1 300       0.015200
     20 H131         3.9730    -0.4960     2.0990 h1         1 300       0.009367
     21 H132         2.9980     0.8390     2.7510 h1         1 300       0.009367
     22 H133         2.7220    -0.8320     3.3150 h1         1 300       0.009367
@<TRIPOS>BOND
     1     1     2 ar  
     2     1     6 ar  
     3     1    16 1   
     4     2     3 ar  
     5     2    17 1   
     6     3     4 ar  
     7     3    18 1   
     8     4     5 ar  
     9     4     9 1   
    10     5     6 ar  
    11     5     8 1   
    12     6     7 1   
    13     7    15 2   
    14     7    19 1   
    15     8    11 1   
    16     9    10 1   
    17    10    20 1   
    18    10    21 1   
    19    10    22 1   
    20    11    12 1   
    21    11    13 1   
    22    11    14 1   
@<TRIPOS>SUBSTRUCTURE
     1 300         1 TEMP              0 ****  ****    0 ROOT
