@<TRIPOS>MOLECULE
300
   22    22     1     0     0
SMALL
abcg2


@<TRIPOS>ATOM
      1 C1          -2.0250     0.3700     1.7750 ca         1 300      -0.064000
      2 C2          -1.1920     0.6220     2.8410 ca         1 300      -0.206000
      3 C3           0.1760     0.3520     2.7440 ca         1 300      -0.184000
      4 C4           0.7130    -0.1520     1.5710 ca         1 300       0.057100
      5 C5          -0.1310    -0.4070     0.4650 ca         1 300       0.309100
      6 C6          -1.4990    -0.1540     0.5880 ca         1 300      -0.265600
      7 C10         -2.4030    -0.5050    -0.5200 c          1 300       0.668500
      8 O11          0.3930    -0.8710    -0.6630 os         1 300      -0.412500
      9 O12          2.0130    -0.4500     1.3900 os         1 300      -0.282100
     10 C13          2.8930    -0.2610     2.4750 c3         1 300       0.159900
     11 P17          0.5940     0.2980    -1.9820 p5         1 300       1.238900
     12 O18          1.1820    -0.6160    -3.0360 o          1 300      -0.884500
     13 O19          1.5190     1.3430    -1.3930 o          1 300      -0.884500
     14 O20         -0.8310     0.7760    -2.2290 o          1 300      -0.884500
     15 O21         -3.5530    -0.1180    -0.5910 o          1 300      -0.636100
     16 H1          -3.0880     0.5590     1.8530 ha         1 300       0.092000
     17 H2          -1.5880     1.0190     3.7670 ha         1 300       0.064000
     18 H3           0.8070     0.5550     3.6000 ha         1 300       0.070000
     19 H10         -2.0130    -1.2330    -1.2400 h4         1 300       0.015200
     20 H131         3.8760    -0.5810     2.1370 h1         1 300       0.009367
     21 H132         2.9540     0.7880     2.7800 h1         1 300       0.009367
     22 H133         2.6090    -0.8600     3.3450 h1         1 300       0.009367
@<TRIPOS>BOND
     1     1     2 ar  
     2     1     6 ar  
     3     1    16 1   
     4     2     3 ar  
     5     2    17 1   
     6     3     4 ar  
     7     3    18 1   
     8     4     5 ar  
     9     4     9 1   
    10     5     6 ar  
    11     5     8 1   
    12     6     7 1   
    13     7    15 2   
    14     7    19 1   
    15     8    11 1   
    16     9    10 1   
    17    10    20 1   
    18    10    21 1   
    19    10    22 1   
    20    11    12 1   
    21    11    13 1   
    22    11    14 1   
@<TRIPOS>SUBSTRUCTURE
     1 300         1 TEMP              0 ****  ****    0 ROOT
