@<TRIPOS>MOLECULE
301
   26    27     1     0     0
SMALL
No Charge or Current Charge


@<TRIPOS>ATOM
      1 C15          5.8320     0.3350     0.4280 c3         1 301      -0.062900
      2 C14          4.6050     1.2260     0.3880 c2         1 301      -0.205200
      3 C13          3.3710     0.8910    -0.0280 c2         1 301      -0.226200
      4 C12          2.9200    -0.4760    -0.5330 c3         1 301      -0.105500
      5 C11          1.4240    -0.6870    -0.4030 c2         1 301       0.501200
      6 N1          -1.4550    -1.0930    -2.1680 nb         1 301      -0.245000
      7 C2          -2.7900    -1.2490    -2.0010 ca         1 301       0.150900
      8 N3          -3.5270    -0.8250    -0.9500 nb         1 301      -0.180000
      9 C4          -2.8470    -0.1840     0.0170 ca         1 301       0.094500
     10 C5          -1.4920     0.0290    -0.0520 ca         1 301      -0.014600
     11 C6          -0.7850    -0.4470    -1.1900 ca         1 301       0.376000
     12 N10          0.6050    -0.2720    -1.3260 ne         1 301      -0.648700
     13 N7          -1.0160     0.7150     1.0630 nc         1 301      -0.522100
     14 C8          -2.1310     0.8990     1.7900 cd         1 301       0.409700
     15 N9          -3.2800     0.3640     1.1920 na         1 301      -0.415300
     16 H15          6.6650     0.7990    -0.1140 hc         1 301       0.041367
     17 H15A         6.1610     0.1700     1.4610 hc         1 301       0.041367
     18 H15B         5.6570    -0.6470    -0.0260 hc         1 301       0.041367
     19 H14          4.7970     2.2460     0.7310 ha         1 301       0.169000
     20 H13          2.5790     1.6450    -0.0130 ha         1 301       0.178000
     21 H12          3.2100    -0.5930    -1.5830 hc         1 301       0.071200
     22 H12A         3.4300    -1.2760     0.0150 hc         1 301       0.071200
     23 H11          1.0500    -1.2060     0.4760 h4         1 301      -0.014200
     24 H8          -2.1830     1.4030     2.7490 h5         1 301       0.068800
     25 HN9         -4.2210     0.3880     1.5610 hn         1 301       0.372000
     26 H2          -3.3240    -1.7700    -2.7930 h5         1 301       0.052100
@<TRIPOS>BOND
     1     1     2 1   
     2     1    16 1   
     3     1    17 1   
     4     1    18 1   
     5     2     3 2   
     6     2    19 1   
     7     3     4 1   
     8     3    20 1   
     9     4     5 1   
    10     4    21 1   
    11     4    22 1   
    12     5    12 2   
    13     5    23 1   
    14     6     7 ar  
    15     6    11 ar  
    16     7     8 ar  
    17     7    26 1   
    18     8     9 ar  
    19     9    10 ar  
    20     9    15 1   
    21    10    11 ar  
    22    10    13 1   
    23    11    12 1   
    24    13    14 2   
    25    14    15 1   
    26    14    24 1   
    27    15    25 1   
@<TRIPOS>SUBSTRUCTURE
     1 301         1 TEMP              0 ****  ****    0 ROOT
