@<TRIPOS>MOLECULE
301
   26    27     1     0     0
SMALL
abcg2


@<TRIPOS>ATOM
      1 C15          5.4760    -0.7040     0.1090 c3         1 301      -0.062900
      2 C14          4.7420     0.3910     0.8110 c2         1 301      -0.205200
      3 C13          3.6790     1.0640     0.3770 c2         1 301      -0.226200
      4 C12          2.9580     0.8610    -0.9290 c3         1 301      -0.105500
      5 C11          1.6900     0.1130    -0.6900 c2         1 301       0.501200
      6 N1          -0.6450    -1.3670    -1.1210 nb         1 301      -0.245000
      7 C2          -1.7650    -2.0690    -0.9510 ca         1 301       0.150900
      8 N3          -2.8770    -1.6810    -0.3520 nb         1 301      -0.180000
      9 C4          -2.8010    -0.4410     0.1060 ca         1 301       0.094500
     10 C5          -1.6960     0.4090    -0.0080 ca         1 301      -0.014600
     11 C6          -0.5820    -0.1240    -0.6560 ca         1 301       0.376000
     12 N10          0.5500     0.6450    -0.8540 ne         1 301      -0.648700
     13 N7          -1.9580     1.6220     0.5740 nc         1 301      -0.522100
     14 C8          -3.1760     1.5040     1.0200 cd         1 301       0.409700
     15 N9          -3.7350     0.2890     0.7690 na         1 301      -0.415300
     16 H15          6.5190    -0.4250    -0.0530 hc         1 301       0.041367
     17 H15A         5.4900    -1.6080     0.7220 hc         1 301       0.041367
     18 H15B         5.0430    -0.9620    -0.8550 hc         1 301       0.041367
     19 H14          5.1350     0.6620     1.7860 ha         1 301       0.169000
     20 H13          3.2560     1.8280     1.0200 ha         1 301       0.178000
     21 H12          2.7310     1.8210    -1.3940 hc         1 301       0.071200
     22 H12A         3.5670     0.2810    -1.6270 hc         1 301       0.071200
     23 H11          1.8010    -0.9150    -0.3340 h4         1 301      -0.014200
     24 H8          -3.7250     2.2740     1.5410 h5         1 301       0.068800
     25 HN9         -4.6620    -0.0070     1.0330 hn         1 301       0.372000
     26 H2          -1.7600    -3.0750    -1.3560 h5         1 301       0.052100
@<TRIPOS>BOND
     1     1     2 1   
     2     1    16 1   
     3     1    17 1   
     4     1    18 1   
     5     2     3 2   
     6     2    19 1   
     7     3     4 1   
     8     3    20 1   
     9     4     5 1   
    10     4    21 1   
    11     4    22 1   
    12     5    12 2   
    13     5    23 1   
    14     6     7 ar  
    15     6    11 ar  
    16     7     8 ar  
    17     7    26 1   
    18     8     9 ar  
    19     9    10 ar  
    20     9    15 1   
    21    10    11 ar  
    22    10    13 1   
    23    11    12 1   
    24    13    14 2   
    25    14    15 1   
    26    14    24 1   
    27    15    25 1   
@<TRIPOS>SUBSTRUCTURE
     1 301         1 TEMP              0 ****  ****    0 ROOT
