@<TRIPOS>MOLECULE
302
   38    39     1     0     0
SMALL
abcg2


@<TRIPOS>ATOM
      1 C1           2.5750     4.7830    -1.3480 cc         1 302       0.061000
      2 C3           3.0380     3.7790    -3.4860 c          1 302       0.620000
      3 C5           3.9510     6.0050    -2.9160 c          1 302       0.591200
      4 C6           3.2920     5.8890    -1.6360 cd         1 302      -0.369200
      5 N2           2.4550     3.7660    -2.2490 ns         1 302      -0.509600
      6 N4           3.7630     4.9140    -3.7500 ns         1 302      -0.472500
      7 O37         -0.0610     2.3610    12.4730 o          1 302      -0.715000
      8 O36         -2.2110     2.3770    11.8850 o          1 302      -0.715000
      9 C28         -0.5890     2.3560    10.1720 ca         1 302      -0.104600
     10 C27          0.7490     2.3420     9.7930 ca         1 302      -0.101000
     11 C26          1.1100     2.3350     8.4540 ca         1 302      -0.104500
     12 C29         -1.5590     2.3630     9.1680 ca         1 302      -0.101000
     13 C30         -1.2080     2.3560     7.8310 ca         1 302      -0.104500
     14 C24          0.1380     2.3420     7.4550 ca         1 302      -0.196900
     15 C20          0.5650     2.3340     6.0580 ce         1 302       0.462800
     16 N19         -0.2860     2.3370     5.1160 n2         1 302      -0.371700
     17 O16          0.2950     2.3290     3.8840 os         1 302      -0.327000
     18 C13         -0.7050     2.3300     2.8800 c3         1 302       0.171600
     19 C12         -0.0300     2.2940     1.5360 c3         1 302       0.153600
     20 O11          0.6740     3.5200     1.3590 os         1 302      -0.276000
     21 N10          1.2550     3.5630     0.1520 n2         1 302      -0.320700
     22 C9           1.9040     4.6330    -0.0640 ce         1 302       0.384500
     23 O7           4.6240     6.9530    -3.2770 o          1 302      -0.530000
     24 O8           2.9260     2.8680    -4.2790 o          1 302      -0.556000
     25 H6           3.3860     6.6920    -0.9200 ha         1 302       0.225000
     26 HN2          1.9110     2.9500    -1.9990 hn         1 302       0.479000
     27 HN4          4.2090     4.9500    -4.6590 hn         1 302       0.340500
     28 H27          1.5190     2.3370    10.5530 ha         1 302       0.131000
     29 H26          2.1590     2.3240     8.1820 ha         1 302       0.094500
     30 H29         -2.6050     2.3740     9.4440 ha         1 302       0.131000
     31 H30         -1.9800     2.3610     7.0720 ha         1 302       0.094500
     32 H20          1.6380     2.3240     5.8630 h4         1 302      -0.009200
     33 H131        -1.3420     1.4450     2.9610 h1         1 302       0.049700
     34 H132        -1.3440     3.2140     2.9680 h1         1 302       0.049700
     35 H121        -0.7980     2.1810     0.7670 h1         1 302       0.049700
     36 H122         0.6580     1.4470     1.4630 h1         1 302       0.049700
     37 H9           1.9910     5.4450     0.6530 h4         1 302       0.035800
     38 C35         -0.9890     2.3650    11.6420 c          1 302       0.709600
@<TRIPOS>BOND
     1     1     4 2   
     2     1     5 1   
     3     1    22 1   
     4     2     5 1   
     5     2     6 1   
     6     2    24 2   
     7     3     4 1   
     8     3     6 1   
     9     3    23 2   
    10     4    25 1   
    11     5    26 1   
    12     6    27 1   
    13     7    38 1   
    14     8    38 1   
    15     9    10 ar  
    16     9    12 ar  
    17     9    38 1   
    18    10    11 ar  
    19    10    28 1   
    20    11    14 ar  
    21    11    29 1   
    22    12    13 ar  
    23    12    30 1   
    24    13    14 ar  
    25    13    31 1   
    26    14    15 1   
    27    15    16 2   
    28    15    32 1   
    29    16    17 1   
    30    17    18 1   
    31    18    19 1   
    32    18    33 1   
    33    18    34 1   
    34    19    20 1   
    35    19    35 1   
    36    19    36 1   
    37    20    21 1   
    38    21    22 2   
    39    22    37 1   
@<TRIPOS>SUBSTRUCTURE
     1 302         1 TEMP              0 ****  ****    0 ROOT
