@<TRIPOS>MOLECULE
302
   38    39     1     0     0
SMALL
No Charge or Current Charge


@<TRIPOS>ATOM
      1 C1           2.6050     4.8310    -1.5160 cc         1 302       0.061000
      2 C3           3.1940     3.8280    -3.6800 c          1 302       0.620000
      3 C5           3.9940     6.0750    -3.1700 c          1 302       0.591200
      4 C6           3.3080     5.9590    -1.8770 cd         1 302      -0.369200
      5 N2           2.5880     3.8090    -2.4590 ns         1 302      -0.509600
      6 N4           3.8640     4.9740    -3.9560 ns         1 302      -0.472500
      7 O37         -0.1640     2.2920    12.6940 o          1 302      -0.715000
      8 O36         -2.2340     2.3870    12.1270 o          1 302      -0.715000
      9 C28         -0.6420     2.3190    10.3760 ca         1 302      -0.104600
     10 C27          0.7190     2.2580     9.9960 ca         1 302      -0.101000
     11 C26          1.0880     2.2450     8.6400 ca         1 302      -0.104500
     12 C29         -1.6200     2.3660     9.3550 ca         1 302      -0.101000
     13 C30         -1.2490     2.3520     7.9990 ca         1 302      -0.104500
     14 C24          0.1120     2.2910     7.6270 ca         1 302      -0.196900
     15 C20          0.5420     2.2750     6.1910 ce         1 302       0.462800
     16 N19         -0.3140     2.3150     5.2120 n2         1 302      -0.371700
     17 O16          0.2770     2.2890     3.9300 os         1 302      -0.327000
     18 C13         -0.7420     2.3430     2.9070 c3         1 302       0.171600
     19 C12         -0.0620     2.2950     1.5200 c3         1 302       0.153600
     20 O11          0.6250     3.5440     1.2960 os         1 302      -0.276000
     21 N10          1.2450     3.5390     0.0290 n2         1 302      -0.320700
     22 C9           1.8900     4.6350    -0.2400 ce         1 302       0.384500
     23 O7           4.6250     7.0570    -3.5210 o          1 302      -0.530000
     24 O8           3.1350     2.8930    -4.4540 o          1 302      -0.556000
     25 H6           3.3970     6.8240    -1.2310 ha         1 302       0.225000
     26 HN2          2.0870     2.9490    -2.2560 hn         1 302       0.479000
     27 HN4          4.3210     5.0130    -4.8530 hn         1 302       0.340500
     28 H27          1.4980     2.2210    10.7540 ha         1 302       0.131000
     29 H26          2.1440     2.1970     8.3780 ha         1 302       0.094500
     30 H29         -2.6760     2.4130     9.6100 ha         1 302       0.131000
     31 H30         -2.0290     2.3890     7.2410 ha         1 302       0.094500
     32 H20          1.6170     2.2260     6.0020 h4         1 302      -0.009200
     33 H131        -1.4200     1.4840     2.9960 h1         1 302       0.049700
     34 H132        -1.3390     3.2600     2.9890 h1         1 302       0.049700
     35 H121        -0.8330     2.1400     0.7550 h1         1 302       0.049700
     36 H122         0.6350     1.4480     1.4830 h1         1 302       0.049700
     37 H9           1.9360     5.4700     0.4630 h4         1 302       0.035800
     38 C35         -1.0440     2.3340    11.8450 c          1 302       0.709600
@<TRIPOS>BOND
     1     1     4 2   
     2     1     5 1   
     3     1    22 1   
     4     2     5 1   
     5     2     6 1   
     6     2    24 2   
     7     3     4 1   
     8     3     6 1   
     9     3    23 2   
    10     4    25 1   
    11     5    26 1   
    12     6    27 1   
    13     7    38 1   
    14     8    38 1   
    15     9    10 ar  
    16     9    12 ar  
    17     9    38 1   
    18    10    11 ar  
    19    10    28 1   
    20    11    14 ar  
    21    11    29 1   
    22    12    13 ar  
    23    12    30 1   
    24    13    14 ar  
    25    13    31 1   
    26    14    15 1   
    27    15    16 2   
    28    15    32 1   
    29    16    17 1   
    30    17    18 1   
    31    18    19 1   
    32    18    33 1   
    33    18    34 1   
    34    19    20 1   
    35    19    35 1   
    36    19    36 1   
    37    20    21 1   
    38    21    22 2   
    39    22    37 1   
@<TRIPOS>SUBSTRUCTURE
     1 302         1 TEMP              0 ****  ****    0 ROOT
