@<TRIPOS>MOLECULE
303
   55    58     1     0     0
SMALL
abcg2


@<TRIPOS>ATOM
      1 N18          2.3680     0.2540    -7.8810 n2         1 303      -0.828100
      2 C17          1.1230    -0.0240    -7.8180 ce         1 303       0.660800
      3 N19          0.2950    -0.2580    -8.8770 nv         1 303      -1.077200
      4 C4           0.4890    -0.1650    -6.4770 ca         1 303      -0.135900
      5 C5           1.0320     0.4940    -5.4020 ca         1 303      -0.051000
      6 C6           0.4540     0.3960    -4.1200 ca         1 303      -0.033000
      7 C10          0.9880     1.0800    -3.0030 ca         1 303      -0.093000
      8 C11          0.4100     0.9670    -1.7710 ca         1 303      -0.098000
      9 C12         -0.7430     0.1650    -1.5860 ca         1 303      -0.152600
     10 C13         -1.2880    -0.4920    -2.6600 ca         1 303      -0.036000
     11 C1          -0.7030    -0.4040    -3.9400 ca         1 303      -0.041000
     12 C2          -1.2380    -1.0870    -5.0550 ca         1 303      -0.096000
     13 C3          -0.6600    -0.9710    -6.2880 ca         1 303      -0.096000
     14 C20         -1.4300     0.0290    -0.2650 c          1 303       0.621700
     15 O21         -2.6230    -0.2180    -0.2000 o          1 303      -0.583100
     16 N22         -0.6270     0.1820     0.8150 ns         1 303      -0.140000
     17 C23         -0.9620     0.1590     2.1760 ca         1 303      -0.024000
     18 C28          0.0950     0.2470     3.0780 ca         1 303      -0.166000
     19 C27         -0.1060     0.2510     4.4540 ca         1 303      -0.043300
     20 C26         -1.4110     0.2030     4.9470 ca         1 303      -0.087300
     21 C25         -2.4620     0.1130     4.0400 ca         1 303      -0.088000
     22 C24         -2.2650     0.0800     2.6700 ca         1 303      -0.126000
     23 C32         -1.6740     0.3020     6.4230 c6         1 303      -0.026100
     24 C33         -0.5010     0.9750     7.1080 c6         1 303       0.166800
     25 N34          0.7020     0.2450     6.7660 n7         1 303      -0.868400
     26 C35          1.0950     0.3640     5.3740 c6         1 303       0.228800
     27 C40          2.1780    -0.6860     5.0530 c3         1 303      -0.048700
     28 C42          3.4190    -0.4780     5.9170 c3         1 303      -0.087100
     29 C46          1.6580    -2.1120     5.1810 c3         1 303      -0.087100
     30 H18          2.6710     0.3660    -8.8440 hn         1 303       0.373400
     31 H191         0.6430    -0.0410    -9.7970 hn         1 303       0.463000
     32 H192        -0.6900    -0.0810    -8.7680 hn         1 303       0.463000
     33 H5           1.9130     1.1100    -5.5380 ha         1 303       0.140000
     34 H10          1.8600     1.7080    -3.1360 ha         1 303       0.121000
     35 H11          0.8310     1.5300    -0.9470 ha         1 303       0.113000
     36 H13         -2.1770    -1.0990    -2.5340 ha         1 303       0.137000
     37 H2          -2.1120    -1.7120    -4.9220 ha         1 303       0.121000
     38 H3          -1.0810    -1.5220    -7.1190 ha         1 303       0.121000
     39 H22          0.3610     0.2700     0.6370 hn         1 303       0.153000
     40 H28          1.1050     0.3210     2.6880 ha         1 303       0.106000
     41 H25         -3.4780     0.0790     4.4160 ha         1 303       0.113000
     42 H24         -3.1140     0.0130     2.0100 ha         1 303       0.148000
     43 H321        -1.8210    -0.6930     6.8540 hc         1 303       0.054700
     44 H322        -2.5950     0.8610     6.6010 hc         1 303       0.054700
     45 H331        -0.6280     0.9490     8.1910 h1         1 303       0.031200
     46 H332        -0.4640     2.0360     6.8130 h1         1 303       0.031200
     47 H34          1.4650     0.5600     7.3480 hn         1 303       0.415000
     48 H35          1.5400     1.3550     5.1710 h1         1 303       0.022700
     49 H40          2.4870    -0.5220     4.0160 hc         1 303       0.038700
     50 H421         4.2320    -1.1210     5.5780 hc         1 303       0.035533
     51 H422         3.7750     0.5540     5.8690 hc         1 303       0.035533
     52 H423         3.2330    -0.7240     6.9650 hc         1 303       0.035533
     53 H461         1.3170    -2.3080     6.1980 hc         1 303       0.035533
     54 H462         0.8240    -2.3030     4.5040 hc         1 303       0.035533
     55 H463         2.4440    -2.8310     4.9440 hc         1 303       0.035533
@<TRIPOS>BOND
     1     1     2 2   
     2     1    30 1   
     3     2     3 1   
     4     2     4 1   
     5     3    31 1   
     6     3    32 1   
     7     4     5 ar  
     8     4    13 ar  
     9     5     6 ar  
    10     5    33 1   
    11     6     7 ar  
    12     6    11 ar  
    13     7     8 ar  
    14     7    34 1   
    15     8     9 ar  
    16     8    35 1   
    17     9    10 ar  
    18     9    14 1   
    19    10    11 ar  
    20    10    36 1   
    21    11    12 ar  
    22    12    13 ar  
    23    12    37 1   
    24    13    38 1   
    25    14    15 2   
    26    14    16 1   
    27    16    17 1   
    28    16    39 1   
    29    17    18 ar  
    30    17    22 ar  
    31    18    19 ar  
    32    18    40 1   
    33    19    20 ar  
    34    19    26 1   
    35    20    21 ar  
    36    20    23 1   
    37    21    22 ar  
    38    21    41 1   
    39    22    42 1   
    40    23    24 1   
    41    23    43 1   
    42    23    44 1   
    43    24    25 1   
    44    24    45 1   
    45    24    46 1   
    46    25    26 1   
    47    25    47 1   
    48    26    27 1   
    49    26    48 1   
    50    27    28 1   
    51    27    29 1   
    52    27    49 1   
    53    28    50 1   
    54    28    51 1   
    55    28    52 1   
    56    29    53 1   
    57    29    54 1   
    58    29    55 1   
@<TRIPOS>SUBSTRUCTURE
     1 303         1 TEMP              0 ****  ****    0 ROOT
