@<TRIPOS>MOLECULE
303
   55    58     1     0     0
SMALL
No Charge or Current Charge


@<TRIPOS>ATOM
      1 N18          2.4200    -0.2830    -8.0270 n2         1 303      -0.828100
      2 C17          1.1660    -0.1240    -7.9150 ce         1 303       0.660800
      3 N19          0.4580     0.1650    -9.0290 nv         1 303      -1.077200
      4 C4           0.4470    -0.1310    -6.5970 ca         1 303      -0.135900
      5 C5           1.1750     0.0010    -5.3910 ca         1 303      -0.051000
      6 C6           0.5220    -0.0310    -4.1440 ca         1 303      -0.033000
      7 C10          1.2550     0.1160    -2.9540 ca         1 303      -0.093000
      8 C11          0.6050     0.0840    -1.7090 ca         1 303      -0.098000
      9 C12         -0.7990    -0.0980    -1.6310 ca         1 303      -0.152600
     10 C13         -1.5250    -0.2460    -2.8360 ca         1 303      -0.036000
     11 C1          -0.8730    -0.2130    -4.0830 ca         1 303      -0.041000
     12 C2          -1.6050    -0.3670    -5.2730 ca         1 303      -0.096000
     13 C3          -0.9530    -0.3340    -6.5180 ca         1 303      -0.096000
     14 C20         -1.5410    -0.1390    -0.3060 c          1 303       0.621700
     15 O21         -2.7570    -0.2980    -0.2670 o          1 303      -0.583100
     16 N22         -0.7540     0.0150     0.8300 ns         1 303      -0.140000
     17 C23         -1.0580     0.0310     2.2210 ca         1 303      -0.024000
     18 C28          0.0110     0.2370     3.1120 ca         1 303      -0.166000
     19 C27         -0.1840     0.2570     4.5130 ca         1 303      -0.043300
     20 C26         -1.5010     0.1120     5.0120 ca         1 303      -0.087300
     21 C25         -2.5730    -0.0990     4.1270 ca         1 303      -0.088000
     22 C24         -2.3560    -0.1450     2.7410 ca         1 303      -0.126000
     23 C32         -1.7780     0.1780     6.5160 c6         1 303      -0.026100
     24 C33         -0.6260     0.8410     7.2970 c6         1 303       0.166800
     25 N34          0.6600     0.2420     6.9030 n7         1 303      -0.868400
     26 C35          1.0110     0.4980     5.4810 c6         1 303       0.228800
     27 C40          2.3040    -0.3220     5.1190 c3         1 303      -0.048700
     28 C42          3.5240     0.0400     6.0020 c3         1 303      -0.087100
     29 C46          2.0810    -1.8560     5.0960 c3         1 303      -0.087100
     30 H18          2.6290    -0.4530    -9.0170 hn         1 303       0.373400
     31 H191         0.9840     0.5850    -9.7860 hn         1 303       0.463000
     32 H192        -0.4560     0.5710    -8.8660 hn         1 303       0.463000
     33 H5           2.2540     0.1400    -5.4220 ha         1 303       0.140000
     34 H10          2.3330     0.2560    -2.9910 ha         1 303       0.121000
     35 H11          1.2120     0.2020    -0.8150 ha         1 303       0.113000
     36 H13         -2.6040    -0.3890    -2.8080 ha         1 303       0.137000
     37 H2          -2.6820    -0.5200    -5.2370 ha         1 303       0.121000
     38 H3          -1.5460    -0.4790    -7.4180 ha         1 303       0.121000
     39 H22          0.2290     0.1400     0.6330 hn         1 303       0.153000
     40 H28          1.0040     0.3900     2.7000 ha         1 303       0.106000
     41 H25         -3.5810    -0.2230     4.5150 ha         1 303       0.113000
     42 H24         -3.2120    -0.3100     2.0950 ha         1 303       0.148000
     43 H321        -1.9330    -0.8410     6.8960 hc         1 303       0.054700
     44 H322        -2.7100     0.7270     6.7090 hc         1 303       0.054700
     45 H331        -0.7870     0.7050     8.3760 h1         1 303       0.031200
     46 H332        -0.6080     1.9220     7.0910 h1         1 303       0.031200
     47 H34          1.4070     0.6280     7.4900 hn         1 303       0.415000
     48 H35          1.2710     1.5640     5.3940 h1         1 303       0.022700
     49 H40          2.6060    -0.0420     4.1040 hc         1 303       0.038700
     50 H421         4.4330    -0.4420     5.6200 hc         1 303       0.035533
     51 H422         3.6940     1.1240     6.0010 hc         1 303       0.035533
     52 H423         3.3800    -0.2860     7.0390 hc         1 303       0.035533
     53 H461         1.8130    -2.2310     6.0910 hc         1 303       0.035533
     54 H462         1.2770    -2.1270     4.4010 hc         1 303       0.035533
     55 H463         2.9910    -2.3740     4.7710 hc         1 303       0.035533
@<TRIPOS>BOND
     1     1     2 2   
     2     1    30 1   
     3     2     3 1   
     4     2     4 1   
     5     3    31 1   
     6     3    32 1   
     7     4     5 ar  
     8     4    13 ar  
     9     5     6 ar  
    10     5    33 1   
    11     6     7 ar  
    12     6    11 ar  
    13     7     8 ar  
    14     7    34 1   
    15     8     9 ar  
    16     8    35 1   
    17     9    10 ar  
    18     9    14 1   
    19    10    11 ar  
    20    10    36 1   
    21    11    12 ar  
    22    12    13 ar  
    23    12    37 1   
    24    13    38 1   
    25    14    15 2   
    26    14    16 1   
    27    16    17 1   
    28    16    39 1   
    29    17    18 ar  
    30    17    22 ar  
    31    18    19 ar  
    32    18    40 1   
    33    19    20 ar  
    34    19    26 1   
    35    20    21 ar  
    36    20    23 1   
    37    21    22 ar  
    38    21    41 1   
    39    22    42 1   
    40    23    24 1   
    41    23    43 1   
    42    23    44 1   
    43    24    25 1   
    44    24    45 1   
    45    24    46 1   
    46    25    26 1   
    47    25    47 1   
    48    26    27 1   
    49    26    48 1   
    50    27    28 1   
    51    27    29 1   
    52    27    49 1   
    53    28    50 1   
    54    28    51 1   
    55    28    52 1   
    56    29    53 1   
    57    29    54 1   
    58    29    55 1   
@<TRIPOS>SUBSTRUCTURE
     1 303         1 TEMP              0 ****  ****    0 ROOT
