@<TRIPOS>MOLECULE
304
   46    47     1     0     0
SMALL
No Charge or Current Charge


@<TRIPOS>ATOM
      1 C1          -4.8240    -1.2870     0.1970 ca         1 304      -0.100000
      2 C2          -3.8280    -2.2720     0.1370 ca         1 304      -0.106000
      3 C3          -3.1150     0.4340     0.0390 ca         1 304      -0.051000
      4 C4           2.3070     1.8070    -0.3840 cc         1 304       0.412900
      5 C5          -4.4810     0.0840     0.1480 ca         1 304      -0.136600
      6 C6          -2.4710    -1.9190     0.0290 ca         1 304      -0.088300
      7 C7          -2.1050    -0.5540    -0.0210 ca         1 304      -0.038000
      8 C8           1.4270     0.7590    -0.3080 cd         1 304      -0.350600
      9 C9           3.7500     0.1520    -0.4820 cd         1 304       0.757300
     10 C10         -5.5270     1.1810     0.2090 c          1 304       0.610700
     11 C11         -0.0270     0.9640    -0.1940 c          1 304       0.664700
     12 C12         -1.4160    -3.0220    -0.0330 c3         1 304      -0.050800
     13 C14          7.0880    -0.2310    -1.7830 c3         1 304      -0.112100
     14 C15         -7.9820     1.6970     0.3860 c3         1 304       0.095300
     15 C16          7.0190    -0.0170     0.7670 c3         1 304      -0.090400
     16 C17          6.2830     0.2610    -0.5670 c3         1 304       0.236500
     17 N18          3.6340     1.4610    -0.4840 nc         1 304      -0.755000
     18 N19         -0.7190    -0.2350    -0.1310 ns         1 304      -0.161000
     19 N20          4.9790    -0.4150    -0.5710 nu         1 304      -0.913100
     20 N21         -6.8410     0.7810     0.3150 ns         1 304      -0.504900
     21 O22         -5.2320     2.3690     0.1680 o          1 304      -0.599100
     22 O23         -0.5380     2.0760    -0.1610 o          1 304      -0.581100
     23 S24          2.2700    -0.7860    -0.3630 ss         1 304      -0.139400
     24 H1          -5.8580    -1.6090     0.2800 ha         1 304       0.111000
     25 H2          -4.1170    -3.3200     0.1760 ha         1 304       0.114000
     26 H3          -2.8560     1.4860     0.0020 ha         1 304       0.156000
     27 H4           2.0540     2.8600    -0.3710 h4         1 304       0.059100
     28 H12         -0.8440    -2.9700    -0.9680 hc         1 304       0.044700
     29 H12A        -0.7090    -2.9400     0.8010 hc         1 304       0.044700
     30 H12B        -1.8660    -4.0210     0.0180 hc         1 304       0.044700
     31 H13          5.3420     0.1550     2.1690 hc         1 304       0.037700
     32 H13A         6.9350     0.4130     2.9060 hc         1 304       0.037700
     33 H13B         6.2140     1.6800     1.8900 hc         1 304       0.037700
     34 H14A         6.5520    -0.0120    -2.7140 hc         1 304       0.046033
     35 H14B         8.0610     0.2720    -1.8280 hc         1 304       0.046033
     36 H15         -7.8820     2.3450     1.2670 h1         1 304       0.039700
     37 H15A        -8.0160     2.3160    -0.5200 h1         1 304       0.039700
     38 H15B        -8.9120     1.1200     0.4660 h1         1 304       0.039700
     39 H16          8.0330     0.3940     0.7000 hc         1 304       0.046200
     40 H16A         7.1290    -1.0990     0.9110 hc         1 304       0.046200
     41 H17          6.1650     1.3500    -0.6700 h1         1 304       0.085700
     42 HN19        -0.1180    -1.0480    -0.1720 hn         1 304       0.153000
     43 HN20         4.9620    -1.4300    -0.5370 hn         1 304       0.500000
     44 HN21        -7.0170    -0.2150     0.3450 hn         1 304       0.316500
     45 H14          7.2640    -1.3130    -1.7300 hc         1 304       0.046033
     46 C13          6.3330     0.5960     2.0080 c3         1 304      -0.089100
@<TRIPOS>BOND
     1     1     2 ar  
     2     1     5 ar  
     3     1    24 1   
     4     2     6 ar  
     5     2    25 1   
     6     3     5 ar  
     7     3     7 ar  
     8     3    26 1   
     9     4     8 2   
    10     4    17 1   
    11     4    27 1   
    12     5    10 1   
    13     6     7 ar  
    14     6    12 1   
    15     7    18 1   
    16     8    11 1   
    17     8    23 1   
    18     9    17 2   
    19     9    19 1   
    20     9    23 1   
    21    10    20 1   
    22    10    21 2   
    23    11    18 1   
    24    11    22 2   
    25    12    28 1   
    26    12    29 1   
    27    12    30 1   
    28    13    16 1   
    29    13    34 1   
    30    13    35 1   
    31    13    45 1   
    32    14    20 1   
    33    14    36 1   
    34    14    37 1   
    35    14    38 1   
    36    15    16 1   
    37    15    39 1   
    38    15    40 1   
    39    15    46 1   
    40    16    19 1   
    41    16    41 1   
    42    18    42 1   
    43    19    43 1   
    44    20    44 1   
    45    31    46 1   
    46    32    46 1   
    47    33    46 1   
@<TRIPOS>SUBSTRUCTURE
     1 304         1 TEMP              0 ****  ****    0 ROOT
