@<TRIPOS>MOLECULE
304
   46    47     1     0     0
SMALL
bcc


@<TRIPOS>ATOM
      1 C1          -4.9170    -1.3150     0.0890 ca         1 304      -0.118000
      2 C2          -4.0420    -2.3580    -0.1700 ca         1 304      -0.124000
      3 C3          -3.0460     0.1650     0.3410 ca         1 304      -0.069000
      4 C4           2.1040     1.2780    -1.1480 cc         1 304       0.478200
      5 C5          -4.4210    -0.0390     0.3420 ca         1 304      -0.136600
      6 C6          -2.6650    -2.1630    -0.2060 ca         1 304      -0.088300
      7 C7          -2.1760    -0.8770     0.0530 ca         1 304       0.054600
      8 C8           1.3000     0.3760    -0.5150 cd         1 304      -0.271000
      9 C9           3.7120     0.1480    -0.1820 cd         1 304       0.757300
     10 C10         -5.2960     1.1290     0.6690 c          1 304       0.677700
     11 C11         -0.1580     0.3510    -0.6030 c          1 304       0.731700
     12 C12         -1.7360    -3.3010    -0.4990 c3         1 304      -0.050800
     13 C14          6.5860    -0.0590    -1.6260 c3         1 304      -0.112100
     14 C15         -7.5070     2.1340     0.4830 c3         1 304       0.095300
     15 C16          7.2340     0.3540     0.7840 c3         1 304      -0.090400
     16 C17          6.1400     0.4790    -0.2720 c3         1 304       0.236500
     17 N18          3.4370     1.1570    -0.9720 nc         1 304      -0.755000
     18 N19         -0.7850    -0.6690     0.0470 ns         1 304      -0.487100
     19 N20          4.9390    -0.2000     0.2000 nu         1 304      -0.857900
     20 N21         -6.5610     1.0730     0.2290 ns         1 304      -0.571900
     21 O22         -4.8670     2.0860     1.3030 o          1 304      -0.599100
     22 O23         -0.7640     1.2060    -1.2300 o          1 304      -0.581100
     23 S24          2.3100    -0.7190     0.3970 ss         1 304      -0.284300
     24 H1          -5.9790    -1.5230     0.1170 ha         1 304       0.129000
     25 H2          -4.4380    -3.3480    -0.3560 ha         1 304       0.132000
     26 H3          -2.6560     1.1440     0.5800 ha         1 304       0.174000
     27 H4           1.7240     2.0700    -1.7790 h4         1 304       0.059100
     28 H12         -1.0200    -3.0490    -1.2830 hc         1 304       0.044700
     29 H12A        -1.1600    -3.5900     0.3850 hc         1 304       0.044700
     30 H12B        -2.2890    -4.1810    -0.8220 hc         1 304       0.044700
     31 H13          6.0180     0.4620     2.5870 hc         1 304       0.037700
     32 H13A         7.7030     0.9010     2.8240 hc         1 304       0.037700
     33 H13B         6.6070     2.0220     2.0230 hc         1 304       0.037700
     34 H14A         5.7940     0.0430    -2.3680 hc         1 304       0.046033
     35 H14B         7.4540     0.4960    -1.9840 hc         1 304       0.046033
     36 H15         -7.6580     2.2870     1.5510 h1         1 304       0.039700
     37 H15A        -7.1850     3.0800     0.0440 h1         1 304       0.039700
     38 H15B        -8.4590     1.8560     0.0390 h1         1 304       0.039700
     39 H16          8.1280     0.8430     0.3880 hc         1 304       0.046200
     40 H16A         7.4980    -0.7010     0.9100 hc         1 304       0.046200
     41 H17          5.8830     1.5340    -0.3800 h1         1 304       0.085700
     42 HN19        -0.2260    -1.4100     0.4420 hn         1 304       0.319500
     43 HN20         5.0580    -1.0570     0.7180 hn         1 304       0.444800
     44 HN21        -6.8480     0.3260    -0.3790 hn         1 304       0.316500
     45 H14          6.8620    -1.1120    -1.5580 hc         1 304       0.046033
     46 C13          6.8680     0.9680     2.1280 c3         1 304      -0.089100
@<TRIPOS>BOND
     1     1     2 ar  
     2     1     5 ar  
     3     1    24 1   
     4     2     6 ar  
     5     2    25 1   
     6     3     5 ar  
     7     3     7 ar  
     8     3    26 1   
     9     4     8 2   
    10     4    17 1   
    11     4    27 1   
    12     5    10 1   
    13     6     7 ar  
    14     6    12 1   
    15     7    18 1   
    16     8    11 1   
    17     8    23 1   
    18     9    17 2   
    19     9    19 1   
    20     9    23 1   
    21    10    20 1   
    22    10    21 2   
    23    11    18 1   
    24    11    22 2   
    25    12    28 1   
    26    12    29 1   
    27    12    30 1   
    28    13    16 1   
    29    13    34 1   
    30    13    35 1   
    31    13    45 1   
    32    14    20 1   
    33    14    36 1   
    34    14    37 1   
    35    14    38 1   
    36    15    16 1   
    37    15    39 1   
    38    15    40 1   
    39    15    46 1   
    40    16    19 1   
    41    16    41 1   
    42    18    42 1   
    43    19    43 1   
    44    20    44 1   
    45    31    46 1   
    46    32    46 1   
    47    33    46 1   
@<TRIPOS>SUBSTRUCTURE
     1 304         1 TEMP              0 ****  ****    0 ROOT
