@<TRIPOS>MOLECULE
306
   57    62     1     0     0
SMALL
No Charge or Current Charge


@<TRIPOS>ATOM
      1 C          -11.8480    -4.8380    -2.2170 cc         1 306       0.250900
      2 C1         -12.5480    -4.5600    -1.0300 cc         1 306      -0.157000
      3 C2         -13.7400    -5.2200    -1.1180 cd         1 306      -0.158000
      4 N          -13.6940    -5.8650    -2.3630 na         1 306       0.000800
      5 N3         -12.5020    -5.6220    -3.0500 nd         1 306      -0.516800
      6 C4          -7.5230    -0.1910     2.2920 cc         1 306      -0.032100
      7 C5          -6.9130     0.6290     3.2340 cd         1 306      -0.173200
      8 N6          -6.5940    -0.2840     1.2310 na         1 306      -0.228700
      9 C7          -5.6160     1.0420     2.7600 ca         1 306      -0.115800
     10 C8          -5.4640     0.4600     1.5330 ca         1 306      -0.035200
     11 C9          -4.3040     0.6510     0.7730 ca         1 306      -0.140000
     12 C10         -3.2870     1.4680     1.3160 ca         1 306      -0.081000
     13 C11         -3.4440     2.0720     2.5920 ca         1 306      -0.126300
     14 C12         -4.6310     1.8570     3.3310 ca         1 306      -0.026000
     15 C13         -2.3400     2.9520     3.1700 c3         1 306       0.222100
     16 C14        -12.1620    -3.7400     0.1280 ca         1 306      -0.015000
     17 C15        -13.0160    -3.5790     1.2440 ca         1 306      -0.057000
     18 C16        -12.6220    -2.7880     2.3390 ca         1 306      -0.161000
     19 C17        -10.9080    -3.0900     0.1370 ca         1 306      -0.051000
     20 C18        -10.5150    -2.2990     1.2340 ca         1 306      -0.123800
     21 C19        -11.3740    -2.1530     2.3270 ca         1 306       0.094600
     22 N20        -10.9490    -1.3580     3.4000 ns         1 306      -0.370100
     23 C21         -9.7570    -0.6810     3.5180 c          1 306       0.572200
     24 C22         -8.8270    -0.8330     2.3450 cc         1 306      -0.111200
     25 C23         -9.2170    -1.6160     1.2620 cd         1 306      -0.102200
     26 O           -9.5350    -0.0260     4.5250 o          1 306      -0.543000
     27 N24         -2.7550     4.3610     3.3690 n3         1 306      -0.721600
     28 C25         -3.1420     5.0370     2.0960 c6         1 306       0.168300
     29 C26         -3.6700     6.4710     2.3470 c6         1 306      -0.074900
     30 C27         -2.6370     7.3160     3.1260 c6         1 306      -0.074400
     31 C28         -2.2170     6.5820     4.4200 c6         1 306      -0.074900
     32 C29         -1.7280     5.1450     4.1090 c6         1 306       0.168300
     33 H          -10.8650    -4.4870    -2.5020 h4         1 306       0.038100
     34 H2         -14.5880    -5.2950    -0.4470 h4         1 306       0.156000
     35 HN         -14.4260    -6.4550    -2.7600 hn         1 306       0.374000
     36 H5          -7.3340     0.9270     4.1890 ha         1 306       0.227000
     37 HN6         -6.7240    -0.8100     0.3760 hn         1 306       0.343000
     38 H9          -4.1880     0.1880    -0.2030 ha         1 306       0.112000
     39 H10         -2.3760     1.6340     0.7450 ha         1 306       0.106000
     40 H12         -4.7760     2.3130     4.3070 ha         1 306       0.133000
     41 H131        -2.0370     2.5180     4.1320 h1         1 306       0.032700
     42 H132        -1.4610     2.9110     2.5120 h1         1 306       0.032700
     43 H15        -13.9880    -4.0610     1.2770 ha         1 306       0.113000
     44 H16        -13.2890    -2.6740     3.1900 ha         1 306       0.122000
     45 H17        -10.2320    -3.1960    -0.7070 ha         1 306       0.118000
     46 HN20       -11.5840    -1.2640     4.1820 hn         1 306       0.329500
     47 H23         -8.5620    -1.7390     0.4060 ha         1 306       0.181000
     48 H251        -3.9280     4.4670     1.5780 h1         1 306       0.029950
     49 H252        -2.2780     5.0860     1.4160 h1         1 306       0.029950
     50 H261        -4.6110     6.4200     2.9130 hc         1 306       0.045200
     51 H262        -3.9060     6.9530     1.3890 hc         1 306       0.045200
     52 H271        -1.7530     7.4950     2.4970 hc         1 306       0.037200
     53 H272        -3.0580     8.3020     3.3690 hc         1 306       0.037200
     54 H281        -1.4230     7.1430     4.9300 hc         1 306       0.045200
     55 H282        -3.0660     6.5370     5.1140 hc         1 306       0.045200
     56 H291        -0.7990     5.2020     3.5220 h1         1 306       0.029950
     57 H292        -1.4800     4.6470     5.0580 h1         1 306       0.029950
@<TRIPOS>BOND
     1     1     2 1   
     2     1     5 2   
     3     1    33 1   
     4     2     3 2   
     5     2    16 1   
     6     3     4 1   
     7     3    34 1   
     8     4     5 1   
     9     4    35 1   
    10     6     7 2   
    11     6     8 1   
    12     6    24 1   
    13     7     9 1   
    14     7    36 1   
    15     8    10 1   
    16     8    37 1   
    17     9    10 ar  
    18     9    14 ar  
    19    10    11 ar  
    20    11    12 ar  
    21    11    38 1   
    22    12    13 ar  
    23    12    39 1   
    24    13    14 ar  
    25    13    15 1   
    26    14    40 1   
    27    15    27 1   
    28    15    41 1   
    29    15    42 1   
    30    16    17 ar  
    31    16    19 ar  
    32    17    18 ar  
    33    17    43 1   
    34    18    21 ar  
    35    18    44 1   
    36    19    20 ar  
    37    19    45 1   
    38    20    21 ar  
    39    20    25 1   
    40    21    22 1   
    41    22    23 1   
    42    22    46 1   
    43    23    24 1   
    44    23    26 2   
    45    24    25 2   
    46    25    47 1   
    47    27    28 1   
    48    27    32 1   
    49    28    29 1   
    50    28    48 1   
    51    28    49 1   
    52    29    30 1   
    53    29    50 1   
    54    29    51 1   
    55    30    31 1   
    56    30    52 1   
    57    30    53 1   
    58    31    32 1   
    59    31    54 1   
    60    31    55 1   
    61    32    56 1   
    62    32    57 1   
@<TRIPOS>SUBSTRUCTURE
     1 306         1 TEMP              0 ****  ****    0 ROOT
