@<TRIPOS>MOLECULE
306
   57    62     1     0     0
SMALL
abcg2


@<TRIPOS>ATOM
      1 C          -11.7140    -5.1620    -1.9070 cc         1 306       0.250900
      2 C1         -12.3870    -4.8170    -0.7150 cc         1 306      -0.157000
      3 C2         -13.4340    -5.7190    -0.6620 cd         1 306      -0.158000
      4 N          -13.3260    -6.4930    -1.7500 na         1 306       0.000800
      5 N3         -12.2930    -6.1740    -2.5210 nd         1 306      -0.516800
      6 C4          -7.5880     0.1070     2.0660 cc         1 306      -0.032100
      7 C5          -6.9700     0.8990     3.0060 cd         1 306      -0.173200
      8 N6          -6.7170    -0.0840     1.0160 na         1 306      -0.228700
      9 C7          -5.6710     1.2100     2.5110 ca         1 306      -0.115800
     10 C8          -5.5520     0.5820     1.2540 ca         1 306      -0.035200
     11 C9          -4.4040     0.7090     0.4760 ca         1 306      -0.140000
     12 C10         -3.3750     1.4780     0.9850 ca         1 306      -0.081000
     13 C11         -3.4590     2.1120     2.2390 ca         1 306      -0.126300
     14 C12         -4.6070     1.9760     2.9990 ca         1 306      -0.026000
     15 C13         -2.2960     2.9280     2.7480 c3         1 306       0.222100
     16 C14        -12.0600    -3.7550     0.2320 ca         1 306      -0.015000
     17 C15        -13.0250    -3.2690     1.1350 ca         1 306      -0.057000
     18 C16        -12.7400    -2.2600     2.0270 ca         1 306      -0.161000
     19 C17        -10.7990    -3.1880     0.2630 ca         1 306      -0.051000
     20 C18        -10.4860    -2.1530     1.1530 ca         1 306      -0.123800
     21 C19        -11.4660    -1.6900     2.0370 ca         1 306       0.094600
     22 N20        -11.1380    -0.6760     2.8960 ns         1 306      -0.370100
     23 C21         -9.9310    -0.0390     2.9840 c          1 306       0.572200
     24 C22         -8.8990    -0.5240     2.0560 cc         1 306      -0.111200
     25 C23         -9.1990    -1.5430     1.2060 cd         1 306      -0.102200
     26 O           -9.7720     0.8650     3.7930 o          1 306      -0.543000
     27 N24         -2.7080     4.1900     3.3270 n3         1 306      -0.721600
     28 C25         -3.2740     5.0820     2.3300 c6         1 306       0.168300
     29 C26         -3.8170     6.3500     2.9690 c6         1 306      -0.074900
     30 C27         -2.7370     7.0610     3.7720 c6         1 306      -0.074400
     31 C28         -2.0950     6.0900     4.7540 c6         1 306      -0.074900
     32 C29         -1.6220     4.8290     4.0470 c6         1 306       0.168300
     33 H          -10.8400    -4.6940    -2.3370 h4         1 306       0.038100
     34 H2         -14.2190    -5.8650     0.0630 h4         1 306       0.156000
     35 HN         -13.9320    -7.2540    -2.0130 hn         1 306       0.374000
     36 H5          -7.3850     1.2130     3.9470 ha         1 306       0.227000
     37 HN6         -6.9360    -0.5470     0.1500 hn         1 306       0.343000
     38 H9          -4.3200     0.2340    -0.4930 ha         1 306       0.112000
     39 H10         -2.4750     1.6030     0.3940 ha         1 306       0.106000
     40 H12         -4.6840     2.4800     3.9560 ha         1 306       0.133000
     41 H131        -1.7710     2.3610     3.5240 h1         1 306       0.032700
     42 H132        -1.5670     3.0690     1.9320 h1         1 306       0.032700
     43 H15        -14.0240    -3.6840     1.1280 ha         1 306       0.113000
     44 H16        -13.5010    -1.9010     2.7080 ha         1 306       0.122000
     45 H17        -10.0220    -3.5430    -0.4040 ha         1 306       0.118000
     46 HN20       -11.8520    -0.3460     3.5320 hn         1 306       0.329500
     47 H23         -8.4480    -1.9400     0.5330 ha         1 306       0.181000
     48 H251        -4.0790     4.5620     1.8070 h1         1 306       0.029950
     49 H252        -2.5210     5.3470     1.5640 h1         1 306       0.029950
     50 H261        -4.6510     6.0860     3.6260 hc         1 306       0.045200
     51 H262        -4.2200     7.0020     2.1900 hc         1 306       0.045200
     52 H271        -1.9740     7.4530     3.0910 hc         1 306       0.037200
     53 H272        -3.1530     7.9230     4.3000 hc         1 306       0.037200
     54 H281        -1.2480     6.5570     5.2630 hc         1 306       0.045200
     55 H282        -2.8200     5.8160     5.5270 hc         1 306       0.045200
     56 H291        -0.7840     5.0860     3.3720 h1         1 306       0.029950
     57 H292        -1.2230     4.1220     4.7790 h1         1 306       0.029950
@<TRIPOS>BOND
     1     1     2 1   
     2     1     5 2   
     3     1    33 1   
     4     2     3 2   
     5     2    16 1   
     6     3     4 1   
     7     3    34 1   
     8     4     5 1   
     9     4    35 1   
    10     6     7 2   
    11     6     8 1   
    12     6    24 1   
    13     7     9 1   
    14     7    36 1   
    15     8    10 1   
    16     8    37 1   
    17     9    10 ar  
    18     9    14 ar  
    19    10    11 ar  
    20    11    12 ar  
    21    11    38 1   
    22    12    13 ar  
    23    12    39 1   
    24    13    14 ar  
    25    13    15 1   
    26    14    40 1   
    27    15    27 1   
    28    15    41 1   
    29    15    42 1   
    30    16    17 ar  
    31    16    19 ar  
    32    17    18 ar  
    33    17    43 1   
    34    18    21 ar  
    35    18    44 1   
    36    19    20 ar  
    37    19    45 1   
    38    20    21 ar  
    39    20    25 1   
    40    21    22 1   
    41    22    23 1   
    42    22    46 1   
    43    23    24 1   
    44    23    26 2   
    45    24    25 2   
    46    25    47 1   
    47    27    28 1   
    48    27    32 1   
    49    28    29 1   
    50    28    48 1   
    51    28    49 1   
    52    29    30 1   
    53    29    50 1   
    54    29    51 1   
    55    30    31 1   
    56    30    52 1   
    57    30    53 1   
    58    31    32 1   
    59    31    54 1   
    60    31    55 1   
    61    32    56 1   
    62    32    57 1   
@<TRIPOS>SUBSTRUCTURE
     1 306         1 TEMP              0 ****  ****    0 ROOT
