@<TRIPOS>MOLECULE
307
   72    76     1     0     0
SMALL
bcc


@<TRIPOS>ATOM
      1 F9          -6.6040     3.6930     0.3240 f          1 307      -0.232967
      2 C7          -7.6190     2.8190     0.2740 c3         1 307       0.721200
      3 F10         -8.6620     3.4610    -0.2580 f          1 307      -0.232967
      4 F8          -7.9380     2.5340     1.5440 f          1 307      -0.232967
      5 C6          -7.2470     1.5870    -0.4930 ca         1 307      -0.182300
      6 C11         -6.2470     0.7720     0.0240 ca         1 307      -0.095000
      7 C5          -7.8800     1.2590    -1.6830 ca         1 307      -0.083000
      8 C4          -7.4950     0.1110    -2.3620 ca         1 307      -0.121000
      9 C3          -6.4840    -0.6960    -1.8700 ca         1 307      -0.108000
     10 C1          -5.8620    -0.3670    -0.6680 ca         1 307       0.012800
     11 N2          -4.8290    -1.1710    -0.1570 na         1 307      -0.006500
     12 C12         -3.6180    -0.6980     0.2990 cc         1 307      -0.073100
     13 C16         -4.8530    -2.5390     0.0020 ca         1 307      -0.038200
     14 C20         -5.8600    -3.4660    -0.2620 ca         1 307      -0.141000
     15 C19         -5.5940    -4.7930     0.0190 ca         1 307      -0.112000
     16 C18         -4.3600    -5.1940     0.5540 ca         1 307      -0.153000
     17 C15         -3.6160    -2.9180     0.5630 ca         1 307      -0.088800
     18 C17         -3.3730    -4.2690     0.8320 ca         1 307      -0.083000
     19 C13         -2.8440    -1.7240     0.7450 cd         1 307      -0.139400
     20 C14         -1.4500    -1.6110     1.2740 c3         1 307       0.244000
     21 N21         -0.5060    -1.1480     0.2670 n3         1 307      -0.723600
     22 C22         -0.3800    -2.1140    -0.8050 c3         1 307       0.148100
     23 C23          0.7740    -0.8090     0.8630 c3         1 307       0.165800
     24 C24          1.6150     0.0690    -0.0570 c3         1 307       0.170800
     25 N25          2.9110     0.3900     0.5150 n3         1 307      -0.742600
     26 C28          2.8100     1.2700     1.6640 c3         1 307       0.147100
     27 C26          3.8210     0.9390    -0.4710 c3         1 307       0.232000
     28 C27          5.2660     0.7020    -0.1280 cc         1 307      -0.296400
     29 C29          5.6330    -0.2210     0.7780 cd         1 307       0.103100
     30 O30          6.8960    -0.5020     1.1130 os         1 307      -0.207200
     31 C31          7.9070     0.1640     0.5150 ca         1 307       0.144100
     32 C32          7.6640     1.1370    -0.4460 ca         1 307      -0.226600
     33 C35          8.7660     1.7810    -1.0210 ca         1 307      -0.043000
     34 C33          6.2890     1.4580    -0.8330 c          1 307       0.595900
     35 O34          6.0210     2.2950    -1.6880 o          1 307      -0.551100
     36 C40          9.2030    -0.1650     0.8990 ca         1 307      -0.160000
     37 C38         10.2810     0.4790     0.3220 ca         1 307      -0.019300
     38 C39         11.6770     0.1220     0.7330 c3         1 307      -0.053800
     39 C36         10.0600     1.4740    -0.6590 ca         1 307      -0.112300
     40 C37         11.2190     2.1800    -1.2960 c3         1 307      -0.042800
     41 H11         -5.7700     1.0060     0.9680 ha         1 307       0.158000
     42 H5          -8.6630     1.8800    -2.0930 ha         1 307       0.154000
     43 H4          -7.9770    -0.1470    -3.2950 ha         1 307       0.145000
     44 H3          -6.1670    -1.5680    -2.4260 ha         1 307       0.154000
     45 H12         -3.3900     0.3560     0.2410 h4         1 307       0.174000
     46 H20         -6.8180    -3.1680    -0.6660 ha         1 307       0.136000
     47 H19         -6.3550    -5.5370    -0.1780 ha         1 307       0.129000
     48 H18         -4.1850    -6.2420     0.7550 ha         1 307       0.130000
     49 H17         -2.4280    -4.5860     1.2560 ha         1 307       0.133000
     50 H141        -1.1450    -2.5820     1.7020 h1         1 307       0.036200
     51 H142        -1.4330    -0.8980     2.1020 h1         1 307       0.036200
     52 H221        -1.3570    -2.3200    -1.2420 h1         1 307       0.032700
     53 H222         0.2530    -1.7310    -1.6050 h1         1 307       0.032700
     54 H223         0.0460    -3.0730    -0.4680 h1         1 307       0.032700
     55 H231         1.3580    -1.7030     1.1420 h1         1 307       0.035200
     56 H232         0.5670    -0.2720     1.7910 h1         1 307       0.035200
     57 H241         1.0370     0.9730    -0.3110 h1         1 307       0.041200
     58 H242         1.7970    -0.4590    -0.9950 h1         1 307       0.041200
     59 H281         3.8020     1.5110     2.0450 h1         1 307       0.032700
     60 H282         2.3060     2.2190     1.4230 h1         1 307       0.032700
     61 H283         2.2640     0.7950     2.4780 h1         1 307       0.032700
     62 H261         3.6220     0.4710    -1.4400 h1         1 307       0.053700
     63 H262         3.6620     2.0170    -0.6280 h1         1 307       0.053700
     64 H29          4.9210    -0.8250     1.3240 h4         1 307       0.198000
     65 H35          8.5880     2.5410    -1.7720 ha         1 307       0.154000
     66 H40          9.3570    -0.9290     1.6510 ha         1 307       0.150000
     67 H391        12.2570    -0.2460    -0.1170 hc         1 307       0.047700
     68 H392        12.2100     0.9900     1.1230 hc         1 307       0.047700
     69 H393        11.6820    -0.6490     1.5010 hc         1 307       0.047700
     70 H371        11.8760     1.4810    -1.8170 hc         1 307       0.043367
     71 H372        10.8790     2.9190    -2.0190 hc         1 307       0.043367
     72 H373        11.8310     2.6970    -0.5550 hc         1 307       0.043367
@<TRIPOS>BOND
     1     1     2 1   
     2     2     3 1   
     3     2     4 1   
     4     2     5 1   
     5     5     6 ar  
     6     5     7 ar  
     7     6    10 ar  
     8     6    41 1   
     9     7     8 ar  
    10     7    42 1   
    11     8     9 ar  
    12     8    43 1   
    13     9    10 ar  
    14     9    44 1   
    15    10    11 1   
    16    11    12 1   
    17    11    13 1   
    18    12    19 2   
    19    12    45 1   
    20    13    14 ar  
    21    13    17 ar  
    22    14    15 ar  
    23    14    46 1   
    24    15    16 ar  
    25    15    47 1   
    26    16    18 ar  
    27    16    48 1   
    28    17    18 ar  
    29    17    19 1   
    30    18    49 1   
    31    19    20 1   
    32    20    21 1   
    33    20    50 1   
    34    20    51 1   
    35    21    22 1   
    36    21    23 1   
    37    22    52 1   
    38    22    53 1   
    39    22    54 1   
    40    23    24 1   
    41    23    55 1   
    42    23    56 1   
    43    24    25 1   
    44    24    57 1   
    45    24    58 1   
    46    25    26 1   
    47    25    27 1   
    48    26    59 1   
    49    26    60 1   
    50    26    61 1   
    51    27    28 1   
    52    27    62 1   
    53    27    63 1   
    54    28    29 2   
    55    28    34 1   
    56    29    30 1   
    57    29    64 1   
    58    30    31 1   
    59    31    32 ar  
    60    31    36 ar  
    61    32    33 ar  
    62    32    34 1   
    63    33    39 ar  
    64    33    65 1   
    65    34    35 2   
    66    36    37 ar  
    67    36    66 1   
    68    37    38 1   
    69    37    39 ar  
    70    38    67 1   
    71    38    68 1   
    72    38    69 1   
    73    39    40 1   
    74    40    70 1   
    75    40    71 1   
    76    40    72 1   
@<TRIPOS>SUBSTRUCTURE
     1 307         1 TEMP              0 ****  ****    0 ROOT
