@<TRIPOS>MOLECULE
307
   72    76     1     0     0
SMALL
No Charge or Current Charge


@<TRIPOS>ATOM
      1 F9          -7.5010     3.8680     0.3760 f          1 307      -0.111667
      2 C7          -8.1940     2.7240     0.5720 c3         1 307       0.357300
      3 F10         -9.4930     2.9990     0.3080 f          1 307      -0.111667
      4 F8          -8.1230     2.4410     1.8930 f          1 307      -0.111667
      5 C6          -7.6470     1.5850    -0.2960 ca         1 307      -0.182300
      6 C11         -6.5730     0.7900     0.1620 ca         1 307      -0.077000
      7 C5          -8.1890     1.3290    -1.5750 ca         1 307      -0.065000
      8 C4          -7.6760     0.2900    -2.3700 ca         1 307      -0.103000
      9 C3          -6.6140    -0.5000    -1.9000 ca         1 307      -0.090000
     10 C1          -6.0580    -0.2530    -0.6320 ca         1 307       0.012800
     11 N2          -4.9980    -1.0300    -0.1680 na         1 307      -0.006500
     12 C12         -3.7740    -0.4650     0.2240 cc         1 307      -0.123100
     13 C16         -5.0260    -2.3990     0.0290 ca         1 307      -0.038200
     14 C20         -6.0480    -3.3320    -0.2030 ca         1 307      -0.123000
     15 C19         -5.7810    -4.6860     0.0970 ca         1 307      -0.094000
     16 C18         -4.5200    -5.0710     0.6160 ca         1 307      -0.135000
     17 C15         -3.8120    -2.7710     0.5400 ca         1 307      -0.088800
     18 C17         -3.5150    -4.1060     0.8460 ca         1 307      -0.065000
     19 C13         -3.0240    -1.5550     0.6620 cd         1 307      -0.139400
     20 C14         -1.6070    -1.4740     1.1820 c3         1 307       0.244000
     21 N21         -0.6090    -1.1670     0.1280 n3         1 307      -0.723600
     22 C22         -0.5700    -2.2060    -0.9330 c3         1 307       0.148100
     23 C23          0.7300    -0.8620     0.7110 c3         1 307       0.165800
     24 C24          1.7900    -0.2880    -0.2800 c3         1 307       0.170800
     25 N25          3.1290     0.0180     0.3060 n3         1 307      -0.742600
     26 C28          3.0780     1.0510     1.3730 c3         1 307       0.147100
     27 C26          4.1270     0.3410    -0.7420 c3         1 307       0.232000
     28 C27          5.5470     0.2360    -0.2420 cc         1 307      -0.296400
     29 C29          5.9360    -0.6160     0.7770 cd         1 307       0.053100
     30 O30          7.2500    -0.6620     1.1660 os         1 307      -0.207200
     31 C31          8.2360     0.1030     0.5970 ca         1 307       0.144100
     32 C32          7.9420     0.9810    -0.4530 ca         1 307      -0.226600
     33 C35          8.9780     1.7510    -1.0210 ca         1 307      -0.025000
     34 C33          6.5350     1.0790    -0.9500 c          1 307       0.595900
     35 O34          6.2440     1.8160    -1.8850 o          1 307      -0.551100
     36 C40          9.5470    -0.0100     1.0810 ca         1 307      -0.142000
     37 C38         10.5880     0.7560     0.5210 ca         1 307      -0.019300
     38 C39         12.0040     0.6090     1.0710 c3         1 307      -0.053800
     39 C36         10.3000     1.6450    -0.5410 ca         1 307      -0.112300
     40 C37         11.3970     2.4940    -1.1790 c3         1 307      -0.042800
     41 H11         -6.1340     0.9780     1.1410 ha         1 307       0.140000
     42 H5          -9.0070     1.9340    -1.9610 ha         1 307       0.136000
     43 H4          -8.1000     0.0990    -3.3540 ha         1 307       0.127000
     44 H3          -6.2180    -1.2990    -2.5230 ha         1 307       0.136000
     45 H12         -3.5440     0.5920     0.1550 h4         1 307       0.224000
     46 H20         -7.0130    -3.0280    -0.5980 ha         1 307       0.118000
     47 H19         -6.5490    -5.4380    -0.0720 ha         1 307       0.111000
     48 H18         -4.3260    -6.1160     0.8430 ha         1 307       0.112000
     49 H17         -2.5460    -4.3930     1.2460 ha         1 307       0.115000
     50 H141        -1.3510    -2.4180     1.6810 h1         1 307       0.036200
     51 H142        -1.5860    -0.6920     1.9530 h1         1 307       0.036200
     52 H221        -1.5680    -2.3760    -1.3590 h1         1 307       0.032700
     53 H222         0.0840    -1.9070    -1.7610 h1         1 307       0.032700
     54 H223        -0.2040    -3.1610    -0.5310 h1         1 307       0.032700
     55 H231         1.1470    -1.7670     1.1720 h1         1 307       0.035200
     56 H232         0.5970    -0.1280     1.5160 h1         1 307       0.035200
     57 H241         1.3730     0.6170    -0.7420 h1         1 307       0.041200
     58 H242         1.9230    -1.0220    -1.0850 h1         1 307       0.041200
     59 H281         4.0800     1.2610     1.7710 h1         1 307       0.032700
     60 H282         2.6640     1.9920     0.9860 h1         1 307       0.032700
     61 H283         2.4590     0.7210     2.2160 h1         1 307       0.032700
     62 H261         4.0280    -0.3550    -1.5870 h1         1 307       0.053700
     63 H262         3.9310     1.3490    -1.1350 h1         1 307       0.053700
     64 H29          5.2840    -1.2820     1.3360 h4         1 307       0.248000
     65 H35          8.7580     2.4350    -1.8390 ha         1 307       0.136000
     66 H40          9.7520    -0.6980     1.8970 ha         1 307       0.132000
     67 H391        12.6970     0.2690     0.2920 hc         1 307       0.047700
     68 H392        12.3760     1.5640     1.4620 hc         1 307       0.047700
     69 H393        12.0500    -0.1180     1.8900 hc         1 307       0.047700
     70 H371        12.1840     1.8640    -1.6100 hc         1 307       0.043367
     71 H372        11.0070     3.1260    -1.9860 hc         1 307       0.043367
     72 H373        11.8620     3.1580    -0.4410 hc         1 307       0.043367
@<TRIPOS>BOND
     1     1     2 1   
     2     2     3 1   
     3     2     4 1   
     4     2     5 1   
     5     5     6 ar  
     6     5     7 ar  
     7     6    10 ar  
     8     6    41 1   
     9     7     8 ar  
    10     7    42 1   
    11     8     9 ar  
    12     8    43 1   
    13     9    10 ar  
    14     9    44 1   
    15    10    11 1   
    16    11    12 1   
    17    11    13 1   
    18    12    19 2   
    19    12    45 1   
    20    13    14 ar  
    21    13    17 ar  
    22    14    15 ar  
    23    14    46 1   
    24    15    16 ar  
    25    15    47 1   
    26    16    18 ar  
    27    16    48 1   
    28    17    18 ar  
    29    17    19 1   
    30    18    49 1   
    31    19    20 1   
    32    20    21 1   
    33    20    50 1   
    34    20    51 1   
    35    21    22 1   
    36    21    23 1   
    37    22    52 1   
    38    22    53 1   
    39    22    54 1   
    40    23    24 1   
    41    23    55 1   
    42    23    56 1   
    43    24    25 1   
    44    24    57 1   
    45    24    58 1   
    46    25    26 1   
    47    25    27 1   
    48    26    59 1   
    49    26    60 1   
    50    26    61 1   
    51    27    28 1   
    52    27    62 1   
    53    27    63 1   
    54    28    29 2   
    55    28    34 1   
    56    29    30 1   
    57    29    64 1   
    58    30    31 1   
    59    31    32 ar  
    60    31    36 ar  
    61    32    33 ar  
    62    32    34 1   
    63    33    39 ar  
    64    33    65 1   
    65    34    35 2   
    66    36    37 ar  
    67    36    66 1   
    68    37    38 1   
    69    37    39 ar  
    70    38    67 1   
    71    38    68 1   
    72    38    69 1   
    73    39    40 1   
    74    40    70 1   
    75    40    71 1   
    76    40    72 1   
@<TRIPOS>SUBSTRUCTURE
     1 307         1 TEMP              0 ****  ****    0 ROOT
