@<TRIPOS>MOLECULE
308
   28    30     1     0     0
SMALL
No Charge or Current Charge


@<TRIPOS>ATOM
      1 N1           2.7330    -0.1250    -0.0110 n8         1 308      -0.987200
      2 C10          1.2600    -0.0750    -0.0050 c6         1 308       0.169200
      3 C7           0.6830    -1.3310    -0.7280 c6         1 308      -0.074067
      4 C1          -0.8740    -1.2800    -0.7220 c6         1 308      -0.057367
      5 C8           0.7380    -0.0480     1.4650 c6         1 308      -0.074067
      6 C5          -0.8190     0.0060     1.4750 c6         1 308      -0.057367
      7 C6          -1.3840    -1.2500     0.7490 c6         1 308      -0.069067
      8 C4          -1.2960     1.2890     0.7330 c6         1 308      -0.069067
      9 C9           0.7700     1.2090    -0.7440 c6         1 308      -0.074067
     10 C3          -0.7860     1.2650    -0.7380 c6         1 308      -0.057367
     11 C2          -1.3510     0.0060    -1.4590 c6         1 308      -0.069067
     12 HN1          3.0850     0.7350    -0.4440 hn         1 308       0.390000
     13 HN1A         3.0640    -0.0610     0.9570 hn         1 308       0.390000
     14 H7           1.0500    -1.3800    -1.7620 hc         1 308       0.042200
     15 H7A          1.0280    -2.2500    -0.2330 hc         1 308       0.042200
     16 H1          -1.2740    -2.1670    -1.2320 hc         1 308       0.049033
     17 H8           1.0820    -0.9370     2.0120 hc         1 308       0.042200
     18 H8A          1.1420     0.8220     2.0010 hc         1 308       0.042200
     19 H5          -1.1810     0.0250     2.5130 hc         1 308       0.049033
     20 H6          -2.4820    -1.2380     0.7690 hc         1 308       0.039700
     21 H6A         -1.0750    -2.1640     1.2760 hc         1 308       0.039700
     22 H4          -2.3930     1.3520     0.7530 hc         1 308       0.039700
     23 H4A         -0.9250     2.1850     1.2480 hc         1 308       0.039700
     24 H9           1.1760     2.1090    -0.2610 hc         1 308       0.042200
     25 H9A          1.1380     1.2190    -1.7800 hc         1 308       0.042200
     26 H3          -1.1250     2.1700    -1.2600 hc         1 308       0.049033
     27 H2          -1.0190    -0.0120    -2.5060 hc         1 308       0.039700
     28 H2A         -2.4490     0.0430    -1.4830 hc         1 308       0.039700
@<TRIPOS>BOND
     1     1     2 1   
     2     1    12 1   
     3     1    13 1   
     4     2     3 1   
     5     2     5 1   
     6     2     9 1   
     7     3     4 1   
     8     3    14 1   
     9     3    15 1   
    10     4     7 1   
    11     4    11 1   
    12     4    16 1   
    13     5     6 1   
    14     5    17 1   
    15     5    18 1   
    16     6     7 1   
    17     6     8 1   
    18     6    19 1   
    19     7    20 1   
    20     7    21 1   
    21     8    10 1   
    22     8    22 1   
    23     8    23 1   
    24     9    10 1   
    25     9    24 1   
    26     9    25 1   
    27    10    11 1   
    28    10    26 1   
    29    11    27 1   
    30    11    28 1   
@<TRIPOS>SUBSTRUCTURE
     1 308         1 TEMP              0 ****  ****    0 ROOT
