@<TRIPOS>MOLECULE
308
   28    30     1     0     0
SMALL
bcc


@<TRIPOS>ATOM
      1 N1           2.7010    -0.0250    -0.1100 n8         1 308      -0.876800
      2 C10          1.2450    -0.0080    -0.0270 c6         1 308       0.169200
      3 C7           0.6930    -1.2710    -0.6950 c6         1 308      -0.074067
      4 C1          -0.8380    -1.2620    -0.6770 c6         1 308      -0.057367
      5 C8           0.7220     0.0450     1.4180 c6         1 308      -0.074067
      6 C5          -0.8080     0.0580     1.4440 c6         1 308      -0.057367
      7 C6          -1.3320    -1.2120     0.7710 c6         1 308      -0.069067
      8 C4          -1.3110     1.2880     0.6870 c6         1 308      -0.069067
      9 C9           0.7150     1.2160    -0.7800 c6         1 308      -0.074067
     10 C3          -0.8150     1.2350    -0.7610 c6         1 308      -0.057367
     11 C2          -1.3470    -0.0330    -1.4320 c6         1 308      -0.069067
     12 HN1          3.0700     0.7980     0.3560 hn         1 308       0.334800
     13 HN1A         3.0550    -0.8140     0.4210 hn         1 308       0.334800
     14 H7           1.0610    -1.3340    -1.7240 hc         1 308       0.042200
     15 H7A          1.0690    -2.1570    -0.1680 hc         1 308       0.042200
     16 H1          -1.2100    -2.1710    -1.1600 hc         1 308       0.049033
     17 H8           1.1030    -0.8200     1.9740 hc         1 308       0.042200
     18 H8A          1.1170     0.9400     1.9140 hc         1 308       0.042200
     19 H5          -1.1550     0.0960     2.4820 hc         1 308       0.049033
     20 H6          -2.4260    -1.2340     0.7990 hc         1 308       0.039700
     21 H6A         -0.9850    -2.0960     1.3160 hc         1 308       0.039700
     22 H4          -2.4050     1.3290     0.7110 hc         1 308       0.039700
     23 H4A         -0.9520     2.2020     1.1730 hc         1 308       0.039700
     24 H9           1.1090     2.1290    -0.3190 hc         1 308       0.042200
     25 H9A          1.0810     1.1970    -1.8120 hc         1 308       0.042200
     26 H3          -1.1730     2.1160    -1.3020 hc         1 308       0.049033
     27 H2          -1.0250    -0.0710    -2.4780 hc         1 308       0.039700
     28 H2A         -2.4420    -0.0230    -1.4390 hc         1 308       0.039700
@<TRIPOS>BOND
     1     1     2 1   
     2     1    12 1   
     3     1    13 1   
     4     2     3 1   
     5     2     5 1   
     6     2     9 1   
     7     3     4 1   
     8     3    14 1   
     9     3    15 1   
    10     4     7 1   
    11     4    11 1   
    12     4    16 1   
    13     5     6 1   
    14     5    17 1   
    15     5    18 1   
    16     6     7 1   
    17     6     8 1   
    18     6    19 1   
    19     7    20 1   
    20     7    21 1   
    21     8    10 1   
    22     8    22 1   
    23     8    23 1   
    24     9    10 1   
    25     9    24 1   
    26     9    25 1   
    27    10    11 1   
    28    10    26 1   
    29    11    27 1   
    30    11    28 1   
@<TRIPOS>SUBSTRUCTURE
     1 308         1 TEMP              0 ****  ****    0 ROOT
