@<TRIPOS>MOLECULE
30A
   30    32     1     0     0
SMALL
bcc


@<TRIPOS>ATOM
      1 CL           0.8460     2.4260     0.0700 cl         1 30A      -0.186000
      2 C1          -3.2980    -0.5140    -0.2890 cc         1 30A      -0.270800
      3 C2          -4.4010     0.2930    -0.9020 c          1 30A       0.945800
      4 O3          -4.1360     1.4720    -1.2050 o          1 30A      -0.811300
      5 C4          -1.9910    -0.1360     0.0040 cd         1 30A       0.399500
      6 O4          -5.4880    -0.3000    -1.0500 o          1 30A      -0.811300
      7 N5          -1.4050    -1.2530     0.5620 na         1 30A      -0.024800
      8 C6          -0.1230    -1.2780     0.9900 cc         1 30A       0.255800
      9 O7           0.3290    -2.3990     1.4980 oh         1 30A      -0.491100
     10 C8           0.6290    -0.1350     0.8630 cd         1 30A      -0.322600
     11 C9           2.0570    -0.0710     1.3200 c3         1 30A       0.051200
     12 C10          3.0590    -0.0590     0.1890 ca         1 30A      -0.060300
     13 C11          4.1360     0.8200     0.2150 ca         1 30A      -0.119500
     14 C12          5.0840     0.8150    -0.7990 ca         1 30A      -0.132000
     15 C13          4.9640    -0.0720    -1.8610 ca         1 30A      -0.139000
     16 C14          3.8900    -0.9520    -1.8970 ca         1 30A      -0.132000
     17 C15          2.9460    -0.9450    -0.8790 ca         1 30A      -0.119500
     18 C16         -0.0490     0.9560     0.2710 cc         1 30A       0.536300
     19 N18         -1.2760     0.9880    -0.1420 nd         1 30A      -0.586000
     20 N19         -2.2290    -2.3020     0.6450 nd         1 30A      -0.672100
     21 C20         -3.3630    -1.8500     0.1330 cc         1 30A       0.421500
     22 H20         -4.2190    -2.5050     0.0780 h4         1 30A       0.053800
     23 H91C         2.1970     0.8140     1.9440 hc         1 30A       0.055200
     24 H92C         2.2640    -0.9210     1.9730 hc         1 30A       0.055200
     25 H11          4.2350     1.5220     1.0360 ha         1 30A       0.131000
     26 H15          2.1130    -1.6370    -0.9250 ha         1 30A       0.131000
     27 H12          5.9150     1.5080    -0.7630 ha         1 30A       0.121500
     28 H13          5.6980    -0.0750    -2.6550 ha         1 30A       0.120000
     29 H14          3.7850    -1.6470    -2.7200 ha         1 30A       0.121500
     30 H7          -0.3690    -3.0770     1.5010 ho         1 30A       0.476000
@<TRIPOS>BOND
     1     1    18 1   
     2     2     3 1   
     3     2     5 2   
     4     2    21 1   
     5     3     4 1   
     6     3     6 1   
     7     5     7 1   
     8     5    19 1   
     9     7     8 1   
    10     7    20 1   
    11     8     9 1   
    12     8    10 2   
    13     9    30 1   
    14    10    11 1   
    15    10    18 1   
    16    11    12 1   
    17    11    23 1   
    18    11    24 1   
    19    12    13 ar  
    20    12    17 ar  
    21    13    14 ar  
    22    13    25 1   
    23    14    15 ar  
    24    14    27 1   
    25    15    16 ar  
    26    15    28 1   
    27    16    17 ar  
    28    16    29 1   
    29    17    26 1   
    30    18    19 2   
    31    20    21 2   
    32    21    22 1   
@<TRIPOS>SUBSTRUCTURE
     1 30A         1 TEMP              0 ****  ****    0 ROOT
