@<TRIPOS>MOLECULE
30A
   30    32     1     0     0
SMALL
No Charge or Current Charge


@<TRIPOS>ATOM
      1 Cl           0.8130     2.4600     0.2920 cl         1 30A      -0.186000
      2 C1          -3.2050    -0.4320    -0.2900 cc         1 30A      -0.270800
      3 C2          -4.2360     0.4310    -0.8600 c          1 30A       0.735200
      4 O3          -4.0010     1.6070    -1.0890 o          1 30A      -0.706000
      5 C4          -1.9250    -0.1670     0.0680 cd         1 30A       0.399500
      6 O4          -5.3240    -0.0730    -1.0920 o          1 30A      -0.706000
      7 N5          -1.3970    -1.3510     0.5550 na         1 30A       0.025900
      8 C6          -0.0870    -1.3860     1.0020 cc         1 30A       0.205100
      9 O7           0.3800    -2.5610     1.4600 oh         1 30A      -0.530100
     10 C8           0.5970    -0.1740     0.9130 cd         1 30A      -0.257300
     11 C9           2.0480    -0.1020     1.3690 c3         1 30A       0.051200
     12 C10          3.0500    -0.0880     0.2180 ca         1 30A      -0.060300
     13 C11          3.9680     0.9730     0.0770 ca         1 30A      -0.101500
     14 C12          4.8880     0.9810    -0.9860 ca         1 30A      -0.114000
     15 C13          4.8980    -0.0720    -1.9150 ca         1 30A      -0.121000
     16 C14          3.9890    -1.1350    -1.7800 ca         1 30A      -0.114000
     17 C15          3.0700    -1.1430    -0.7160 ca         1 30A      -0.101500
     18 C16         -0.0600     0.9560     0.3960 cc         1 30A       0.471000
     19 N18         -1.3120     1.0570    -0.0470 nd         1 30A      -0.586000
     20 N19         -2.3200    -2.3980     0.5200 nd         1 30A      -0.672100
     21 C20         -3.3860    -1.7910     0.0050 cc         1 30A       0.421500
     22 H20         -4.2870    -2.3740    -0.1440 h4         1 30A       0.053800
     23 H91C         2.1940     0.7750     2.0130 hc         1 30A       0.055200
     24 H92C         2.2900    -0.9460     2.0250 hc         1 30A       0.055200
     25 H11          3.9690     1.7950     0.7900 ha         1 30A       0.113000
     26 H15          2.3720    -1.9710    -0.6190 ha         1 30A       0.113000
     27 H12          5.5910     1.8040    -1.0890 ha         1 30A       0.103500
     28 H13          5.6100    -0.0660    -2.7380 ha         1 30A       0.102000
     29 H14          3.9970    -1.9520    -2.4970 ha         1 30A       0.103500
     30 H7          -0.3870    -3.1720     1.3660 ho         1 30A       0.515000
@<TRIPOS>BOND
     1     1    18 1   
     2     2     3 1   
     3     2     5 2   
     4     2    21 1   
     5     3     4 1   
     6     3     6 1   
     7     5     7 1   
     8     5    19 1   
     9     7     8 1   
    10     7    20 1   
    11     8     9 1   
    12     8    10 2   
    13     9    30 1   
    14    10    11 1   
    15    10    18 1   
    16    11    12 1   
    17    11    23 1   
    18    11    24 1   
    19    12    13 ar  
    20    12    17 ar  
    21    13    14 ar  
    22    13    25 1   
    23    14    15 ar  
    24    14    27 1   
    25    15    16 ar  
    26    15    28 1   
    27    16    17 ar  
    28    16    29 1   
    29    17    26 1   
    30    18    19 2   
    31    20    21 2   
    32    21    22 1   
@<TRIPOS>SUBSTRUCTURE
     1 30A         1 TEMP              0 ****  ****    0 ROOT
