@<TRIPOS>MOLECULE
30B
   99   105     1     0     0
SMALL
No Charge or Current Charge


@<TRIPOS>ATOM
      1 C1           0.3520    -3.2820    -1.6850 c5         1 30B      -0.072400
      2 C2          -1.0770    -2.8530    -1.2460 c5         1 30B      -0.144700
      3 C3          -0.8440    -2.3310     0.2270 c5         1 30B      -0.136700
      4 C4           0.6930    -2.0250     0.3140 c5         1 30B      -0.101400
      5 C5           1.1570    -2.0680    -1.1700 c5         1 30B       0.168300
      6 C6          -1.6720    -1.0330     0.4220 c          1 30B       0.599100
      7 O7          -1.5970    -0.0150    -0.2480 o          1 30B      -0.571100
      8 N8          -2.5770    -1.2190     1.4500 ns         1 30B      -0.474900
      9 C9          -2.0460    -4.0820    -1.2570 c          1 30B       0.616100
     10 O10         -1.9200    -5.0780    -0.5550 o          1 30B      -0.623100
     11 C11         -5.0550    -1.2180     1.4860 cx         1 30B      -0.046500
     12 N13         -3.1840    -3.8790    -2.0810 n          1 30B      -0.397800
     13 C14         -4.3420    -4.7990    -1.9140 c3         1 30B       0.095000
     14 C15         -3.0250    -3.2720    -3.4300 c3         1 30B       0.085300
     15 C16         -3.7740    -0.4190     1.6680 cx         1 30B      -0.062600
     16 C17         -4.6390    -0.7740     2.8640 cx         1 30B      -0.097400
     17 C18         -6.2270    -0.6360     0.7730 c2         1 30B      -0.182200
     18 C19         -5.7270    -4.2800    -2.3940 c3         1 30B      -0.091400
     19 C20         -6.4140    -3.2570    -1.4540 c3         1 30B      -0.069400
     20 C21         -5.7940    -1.8420    -1.4370 c3         1 30B      -0.046200
     21 C22         -6.5520    -0.9130    -0.5020 c2         1 30B      -0.193200
     22 O23          2.5640    -2.4240    -1.2320 os         1 30B      -0.340100
     23 C24          5.9960    -2.1140     2.4820 ca         1 30B       0.147100
     24 C25          5.1970    -3.1590     1.9760 ca         1 30B      -0.189000
     25 C26          4.3190    -2.9270     0.9120 ca         1 30B      -0.040000
     26 C27          4.2260    -1.6450     0.3380 ca         1 30B      -0.135000
     27 C28          5.0200    -0.5820     0.8290 ca         1 30B       0.330000
     28 C29          5.9110    -0.8220     1.9090 ca         1 30B      -0.092300
     29 C30          3.3390    -1.3980    -0.7250 ca         1 30B       0.208100
     30 C31          3.2960    -0.1160    -1.2870 ca         1 30B      -0.288000
     31 C32          4.1000     0.9040    -0.7520 ca         1 30B       0.372000
     32 N33          4.9410     0.6560     0.2850 nb         1 30B      -0.652000
     33 C34          4.0580     2.2690    -1.3360 cc         1 30B       0.368400
     34 S35          2.5450     2.9370    -1.9060 ss         1 30B      -0.027400
     35 C36          3.4210     4.3600    -2.3820 cc         1 30B      -0.263000
     36 C37          4.7620     4.2460    -2.1000 cd         1 30B       0.294300
     37 N38          5.1290     3.0480    -1.5070 nd         1 30B      -0.600000
     38 C39          5.8120     5.2960    -2.3860 c3         1 30B      -0.088000
     39 C40          5.9390     5.5740    -3.9010 c3         1 30B      -0.086100
     40 C41          5.5480     6.5940    -1.5890 c3         1 30B      -0.086100
     41 C43          7.0200    -3.6020     4.1780 c3         1 30B       0.149900
     42 C44          6.7750     0.3300     2.4460 c3         1 30B      -0.034800
     43 N45         -2.9810     1.7810     2.2530 ns         1 30B      -0.571300
     44 O46         -4.3000     1.6130     0.4170 o          1 30B      -0.559100
     45 S47         -2.7250     3.4200     2.3060 s6         1 30B       1.264800
     46 C48         -4.4120     4.0930     2.6560 cx         1 30B      -0.434700
     47 O49         -1.8710     3.6900     3.4670 o          1 30B      -0.525500
     48 O50         -2.3310     3.8810     0.9710 o          1 30B      -0.525500
     49 C51         -4.6010     5.3560     3.4730 cx         1 30B      -0.067900
     50 C52         -5.0110     4.0150     4.0470 cx         1 30B      -0.067900
     51 H1           0.6750    -4.2180    -1.2120 hc         1 30B       0.070200
     52 H1A          0.4370    -3.4090    -2.7700 hc         1 30B       0.070200
     53 H2          -1.4390    -2.0490    -1.8960 hc         1 30B       0.088700
     54 H3          -1.1170    -3.0780     0.9820 hc         1 30B       0.083700
     55 H4           0.9090    -1.0590     0.7880 hc         1 30B       0.072700
     56 H4A          1.2050    -2.7910     0.9090 hc         1 30B       0.072700
     57 H5           0.9290    -1.1530    -1.7330 h1         1 30B       0.060700
     58 HN8         -2.4900    -2.0970     1.9500 hn         1 30B       0.324500
     59 H11         -4.9380    -2.2820     1.2910 hc         1 30B       0.096700
     60 H14         -4.1120    -5.7180    -2.4700 h1         1 30B       0.058200
     61 H14A        -4.4330    -5.0800    -0.8560 h1         1 30B       0.058200
     62 H15         -1.9720    -3.2790    -3.7380 h1         1 30B       0.042700
     63 H15A        -3.5870    -3.8440    -4.1790 h1         1 30B       0.042700
     64 H15B        -3.3940    -2.2390    -3.4160 h1         1 30B       0.042700
     65 H17         -5.2170     0.0180     3.3350 hc         1 30B       0.086200
     66 H17A        -4.2750    -1.5330     3.5530 hc         1 30B       0.086200
     67 H18         -6.8450     0.0510     1.3550 ha         1 30B       0.189000
     68 H19         -5.6740    -3.8770    -3.4110 hc         1 30B       0.043200
     69 H19A        -6.3890    -5.1520    -2.4580 hc         1 30B       0.043200
     70 H20         -7.4640    -3.1650    -1.7590 hc         1 30B       0.042700
     71 H20A        -6.4250    -3.6580    -0.4340 hc         1 30B       0.042700
     72 H21         -4.7420    -1.9090    -1.1360 hc         1 30B       0.049700
     73 H21A        -5.7930    -1.4300    -2.4540 hc         1 30B       0.049700
     74 H22         -7.4310    -0.4460    -0.9520 ha         1 30B       0.171000
     75 H25          5.2410    -4.1600     2.3950 ha         1 30B       0.119000
     76 H26          3.7120    -3.7500     0.5400 ha         1 30B       0.125000
     77 H31          2.6630     0.0880    -2.1440 ha         1 30B       0.129000
     78 H36          2.8980     5.1880    -2.8400 h4         1 30B       0.163000
     79 H39          6.7850     4.9120    -2.0520 hc         1 30B       0.067700
     80 H40          5.0080     5.9910    -4.3030 hc         1 30B       0.037200
     81 H40A         6.7490     6.2870    -4.0980 hc         1 30B       0.037200
     82 H40B         6.1630     4.6470    -4.4440 hc         1 30B       0.037200
     83 H41          5.4990     6.3810    -0.5140 hc         1 30B       0.037200
     84 H41A         6.3520     7.3220    -1.7550 hc         1 30B       0.037200
     85 H41B         4.6000     7.0550    -1.8910 hc         1 30B       0.037200
     86 H43          7.7620    -3.5360     4.9830 h1         1 30B       0.041367
     87 H43A         6.0710    -3.9330     4.6180 h1         1 30B       0.041367
     88 H43B         7.3620    -4.3610     3.4630 h1         1 30B       0.041367
     89 H44          7.4000     0.7530     1.6510 hc         1 30B       0.052700
     90 H44A         6.1460     1.1380     2.8380 hc         1 30B       0.052700
     91 H44B         7.4510     0.0300     3.2540 hc         1 30B       0.052700
     92 HN45        -2.5370     1.2980     3.0130 hn         1 30B       0.353500
     93 H48         -5.0460     3.9110     1.7910 h1         1 30B       0.146700
     94 H51         -3.7230     5.8390     3.8980 hc         1 30B       0.086450
     95 H51A        -5.3930     6.0420     3.1780 hc         1 30B       0.086450
     96 H52         -6.0750     3.8070     4.1340 hc         1 30B       0.086450
     97 H52A        -4.4040     3.6070     4.8530 hc         1 30B       0.086450
     98 C12         -3.7240     1.0870     1.3570 c          1 30B       0.683100
     99 O42          6.8690    -2.3240     3.5350 os         1 30B      -0.337100
@<TRIPOS>BOND
     1     1     2 1   
     2     1     5 1   
     3     1    51 1   
     4     1    52 1   
     5     2     3 1   
     6     2     9 1   
     7     2    53 1   
     8     3     4 1   
     9     3     6 1   
    10     3    54 1   
    11     4     5 1   
    12     4    55 1   
    13     4    56 1   
    14     5    22 1   
    15     5    57 1   
    16     6     7 2   
    17     6     8 1   
    18     8    15 1   
    19     8    58 1   
    20     9    10 2   
    21     9    12 1   
    22    11    15 1   
    23    11    16 1   
    24    11    17 1   
    25    11    59 1   
    26    12    13 1   
    27    12    14 1   
    28    13    18 1   
    29    13    60 1   
    30    13    61 1   
    31    14    62 1   
    32    14    63 1   
    33    14    64 1   
    34    15    16 1   
    35    15    98 1   
    36    16    65 1   
    37    16    66 1   
    38    17    21 2   
    39    17    67 1   
    40    18    19 1   
    41    18    68 1   
    42    18    69 1   
    43    19    20 1   
    44    19    70 1   
    45    19    71 1   
    46    20    21 1   
    47    20    72 1   
    48    20    73 1   
    49    21    74 1   
    50    22    29 1   
    51    23    24 ar  
    52    23    28 ar  
    53    23    99 1   
    54    24    25 ar  
    55    24    75 1   
    56    25    26 ar  
    57    25    76 1   
    58    26    27 ar  
    59    26    29 ar  
    60    27    28 ar  
    61    27    32 ar  
    62    28    42 1   
    63    29    30 ar  
    64    30    31 ar  
    65    30    77 1   
    66    31    32 ar  
    67    31    33 1   
    68    33    34 1   
    69    33    37 2   
    70    34    35 1   
    71    35    36 2   
    72    35    78 1   
    73    36    37 1   
    74    36    38 1   
    75    38    39 1   
    76    38    40 1   
    77    38    79 1   
    78    39    80 1   
    79    39    81 1   
    80    39    82 1   
    81    40    83 1   
    82    40    84 1   
    83    40    85 1   
    84    41    86 1   
    85    41    87 1   
    86    41    88 1   
    87    41    99 1   
    88    42    89 1   
    89    42    90 1   
    90    42    91 1   
    91    43    45 1   
    92    43    92 1   
    93    43    98 1   
    94    44    98 2   
    95    45    46 1   
    96    45    47 2   
    97    45    48 2   
    98    46    49 1   
    99    46    50 1   
   100    46    93 1   
   101    49    50 1   
   102    49    94 1   
   103    49    95 1   
   104    50    96 1   
   105    50    97 1   
@<TRIPOS>SUBSTRUCTURE
     1 30B         1 TEMP              0 ****  ****    0 ROOT
