@<TRIPOS>MOLECULE
30B
   99   105     1     0     0
SMALL
abcg2


@<TRIPOS>ATOM
      1 C1           0.0100    -2.8120    -1.3020 c5         1 30B      -0.072400
      2 C2          -1.4350    -2.3470    -1.1000 c5         1 30B      -0.144700
      3 C3          -1.2920    -1.3970     0.0900 c5         1 30B      -0.136700
      4 C4          -0.0830    -0.5560    -0.3220 c5         1 30B      -0.101400
      5 C5           0.8410    -1.5450    -1.0650 c5         1 30B       0.168300
      6 C6          -2.5680    -0.6270     0.3030 c          1 30B       0.599100
      7 O7          -3.1620    -0.0890    -0.6150 o          1 30B      -0.571100
      8 N8          -3.0540    -0.5920     1.5710 ns         1 30B      -0.474900
      9 C9          -2.4390    -3.4610    -0.8540 c          1 30B       0.616100
     10 O10         -2.7180    -3.7860     0.2960 o          1 30B      -0.623100
     11 C11         -5.4090    -1.3690     1.3090 cx         1 30B      -0.046500
     12 N13         -2.9890    -4.0470    -1.9350 n          1 30B      -0.397800
     13 C14         -3.9550    -5.1280    -1.7900 c3         1 30B       0.095000
     14 C15         -2.6940    -3.6400    -3.2970 c3         1 30B       0.085300
     15 C16         -4.4320    -0.2840     1.7620 cx         1 30B      -0.062600
     16 C17         -5.2100    -1.1000     2.7580 cx         1 30B      -0.097400
     17 C18         -6.6730    -1.1370     0.5840 c2         1 30B      -0.182200
     18 C19         -5.3740    -4.8140    -2.2600 c3         1 30B      -0.091400
     19 C20         -6.2120    -3.9120    -1.3540 c3         1 30B      -0.069400
     20 C21         -5.9470    -2.4080    -1.4800 c3         1 30B      -0.046200
     21 C22         -6.9050    -1.6150    -0.6390 c2         1 30B      -0.193200
     22 O23          1.9890    -1.9190    -0.3050 os         1 30B      -0.340100
     23 C24          6.4430    -2.4220     1.8400 ca         1 30B       0.147100
     24 C25          5.3380    -3.2850     1.6930 ca         1 30B      -0.189000
     25 C26          4.2110    -2.8580     1.0430 ca         1 30B      -0.040000
     26 C27          4.1430    -1.5580     0.5180 ca         1 30B      -0.135000
     27 C28          5.2530    -0.6850     0.6670 ca         1 30B       0.330000
     28 C29          6.4180    -1.1290     1.3400 ca         1 30B      -0.092300
     29 C30          3.0020    -1.0670    -0.1770 ca         1 30B       0.208100
     30 C31          3.0210     0.2160    -0.6660 ca         1 30B      -0.288000
     31 C32          4.1740     1.0000    -0.4460 ca         1 30B       0.372000
     32 N33          5.2380     0.5790     0.1830 nb         1 30B      -0.652000
     33 C34          4.2130     2.3870    -0.9380 cc         1 30B       0.368400
     34 S35          2.8100     3.1750    -1.5730 ss         1 30B      -0.027400
     35 C36          3.7390     4.5860    -1.8250 cc         1 30B      -0.263000
     36 C37          5.0260     4.3830    -1.4220 cd         1 30B       0.294300
     37 N38          5.2690     3.1370    -0.9240 nd         1 30B      -0.600000
     38 C39          6.1550     5.3710    -1.5010 c3         1 30B      -0.088000
     39 C40          7.2280     4.8710    -2.4700 c3         1 30B      -0.086100
     40 C41          5.6840     6.7670    -1.8840 c3         1 30B      -0.086100
     41 C43          7.6770    -4.0960     3.0030 c3         1 30B       0.149900
     42 C44          7.6070    -0.2340     1.5120 c3         1 30B      -0.034800
     43 N45         -3.7620     2.0250     1.6930 ns         1 30B      -0.571300
     44 O46         -5.9640     1.5320     1.5660 o          1 30B      -0.559100
     45 S47         -3.9210     3.6860     1.5190 s6         1 30B       1.264800
     46 C48         -4.7970     4.1940     2.9510 cx         1 30B      -0.434700
     47 O49         -2.5550     4.1770     1.5840 o          1 30B      -0.525500
     48 O50         -4.7240     3.9580     0.3440 o          1 30B      -0.525500
     49 C51         -4.4510     5.5270     3.5460 cx         1 30B      -0.067900
     50 C52         -4.0620     4.2720     4.2510 cx         1 30B      -0.067900
     51 H1           0.2630    -3.5630    -0.5500 hc         1 30B       0.070200
     52 H1A          0.1990    -3.2470    -2.2830 hc         1 30B       0.070200
     53 H2          -1.7400    -1.7510    -1.9640 hc         1 30B       0.088700
     54 H3          -1.0400    -1.9720     0.9840 hc         1 30B       0.083700
     55 H4          -0.3910     0.2370    -1.0070 hc         1 30B       0.072700
     56 H4A          0.4030    -0.0770     0.5280 hc         1 30B       0.072700
     57 H5           1.1740    -1.1230    -2.0170 h1         1 30B       0.060700
     58 HN8         -2.5720    -1.1040     2.2930 hn         1 30B       0.324500
     59 H11         -4.8530    -2.2300     0.9550 hc         1 30B       0.096700
     60 H14         -3.5800    -5.9790    -2.3660 h1         1 30B       0.058200
     61 H14A        -3.9750    -5.4370    -0.7480 h1         1 30B       0.058200
     62 H15         -1.6380    -3.4220    -3.4400 h1         1 30B       0.042700
     63 H15A        -2.9370    -4.4610    -3.9680 h1         1 30B       0.042700
     64 H15B        -3.2730    -2.7680    -3.6070 h1         1 30B       0.042700
     65 H17         -5.9930    -0.5810     3.2970 hc         1 30B       0.086200
     66 H17A        -4.6560    -1.8190     3.3500 hc         1 30B       0.086200
     67 H18         -7.4570    -0.5930     1.0960 ha         1 30B       0.189000
     68 H19         -5.3610    -4.4170    -3.2800 hc         1 30B       0.043200
     69 H19A        -5.8780    -5.7810    -2.3340 hc         1 30B       0.043200
     70 H20         -7.2670    -4.0880    -1.5830 hc         1 30B       0.042700
     71 H20A        -6.0790    -4.2190    -0.3110 hc         1 30B       0.042700
     72 H21         -4.9170    -2.1710    -1.2190 hc         1 30B       0.049700
     73 H21A        -6.0690    -2.1170    -2.5280 hc         1 30B       0.049700
     74 H22         -7.8900    -1.4500    -1.0660 ha         1 30B       0.171000
     75 H25          5.3630    -4.2920     2.0860 ha         1 30B       0.119000
     76 H26          3.3750    -3.5360     0.9390 ha         1 30B       0.125000
     77 H31          2.1800     0.6250    -1.2080 ha         1 30B       0.129000
     78 H36          3.2930     5.4730    -2.2450 h4         1 30B       0.163000
     79 H39          6.6030     5.4200    -0.5020 hc         1 30B       0.067700
     80 H40          6.8300     4.8010    -3.4850 hc         1 30B       0.037200
     81 H40A         8.0740     5.5600    -2.4900 hc         1 30B       0.037200
     82 H40B         7.6020     3.8880    -2.1850 hc         1 30B       0.037200
     83 H41          4.9300     7.1480    -1.1940 hc         1 30B       0.037200
     84 H41A         6.5240     7.4620    -1.8740 hc         1 30B       0.037200
     85 H41B         5.2600     6.7800    -2.8900 hc         1 30B       0.037200
     86 H43          8.6680    -4.1670     3.4430 h1         1 30B       0.041367
     87 H43A         6.9330    -4.2750     3.7820 h1         1 30B       0.041367
     88 H43B         7.5770    -4.8650     2.2340 h1         1 30B       0.041367
     89 H44          8.4920    -0.6460     1.0230 hc         1 30B       0.052700
     90 H44A         7.4150     0.7470     1.0870 hc         1 30B       0.052700
     91 H44B         7.8590    -0.1040     2.5660 hc         1 30B       0.052700
     92 HN45        -2.8250     1.6840     1.8750 hn         1 30B       0.353500
     93 H48         -5.8320     3.8760     2.9380 h1         1 30B       0.146700
     94 H51         -3.6670     6.1140     3.0870 hc         1 30B       0.086450
     95 H51A        -5.2860     6.1030     3.9200 hc         1 30B       0.086450
     96 H52         -4.6170     3.9670     5.1270 hc         1 30B       0.086450
     97 H52A        -3.0130     4.0070     4.2650 hc         1 30B       0.086450
     98 C12         -4.8170     1.1510     1.6450 c          1 30B       0.683100
     99 O42          7.5750    -2.7910     2.4640 os         1 30B      -0.337100
@<TRIPOS>BOND
     1     1     2 1   
     2     1     5 1   
     3     1    51 1   
     4     1    52 1   
     5     2     3 1   
     6     2     9 1   
     7     2    53 1   
     8     3     4 1   
     9     3     6 1   
    10     3    54 1   
    11     4     5 1   
    12     4    55 1   
    13     4    56 1   
    14     5    22 1   
    15     5    57 1   
    16     6     7 2   
    17     6     8 1   
    18     8    15 1   
    19     8    58 1   
    20     9    10 2   
    21     9    12 1   
    22    11    15 1   
    23    11    16 1   
    24    11    17 1   
    25    11    59 1   
    26    12    13 1   
    27    12    14 1   
    28    13    18 1   
    29    13    60 1   
    30    13    61 1   
    31    14    62 1   
    32    14    63 1   
    33    14    64 1   
    34    15    16 1   
    35    15    98 1   
    36    16    65 1   
    37    16    66 1   
    38    17    21 2   
    39    17    67 1   
    40    18    19 1   
    41    18    68 1   
    42    18    69 1   
    43    19    20 1   
    44    19    70 1   
    45    19    71 1   
    46    20    21 1   
    47    20    72 1   
    48    20    73 1   
    49    21    74 1   
    50    22    29 1   
    51    23    24 ar  
    52    23    28 ar  
    53    23    99 1   
    54    24    25 ar  
    55    24    75 1   
    56    25    26 ar  
    57    25    76 1   
    58    26    27 ar  
    59    26    29 ar  
    60    27    28 ar  
    61    27    32 ar  
    62    28    42 1   
    63    29    30 ar  
    64    30    31 ar  
    65    30    77 1   
    66    31    32 ar  
    67    31    33 1   
    68    33    34 1   
    69    33    37 2   
    70    34    35 1   
    71    35    36 2   
    72    35    78 1   
    73    36    37 1   
    74    36    38 1   
    75    38    39 1   
    76    38    40 1   
    77    38    79 1   
    78    39    80 1   
    79    39    81 1   
    80    39    82 1   
    81    40    83 1   
    82    40    84 1   
    83    40    85 1   
    84    41    86 1   
    85    41    87 1   
    86    41    88 1   
    87    41    99 1   
    88    42    89 1   
    89    42    90 1   
    90    42    91 1   
    91    43    45 1   
    92    43    92 1   
    93    43    98 1   
    94    44    98 2   
    95    45    46 1   
    96    45    47 2   
    97    45    48 2   
    98    46    49 1   
    99    46    50 1   
   100    46    93 1   
   101    49    50 1   
   102    49    94 1   
   103    49    95 1   
   104    50    96 1   
   105    50    97 1   
@<TRIPOS>SUBSTRUCTURE
     1 30B         1 TEMP              0 ****  ****    0 ROOT
