@<TRIPOS>MOLECULE
30E
   57    59     1     0     0
SMALL
abcg2


@<TRIPOS>ATOM
      1 C01         -5.6420    -2.2010     1.1210 c3         1 30E      -0.093100
      2 C02         -5.3100    -1.0330     0.1980 c3         1 30E      -0.068400
      3 C03         -4.4920     0.0720     0.8750 c6         1 30E      -0.033700
      4 C04         -3.0660    -0.3690     1.1960 c6         1 30E       0.180800
      5 N05         -2.2610    -0.5330    -0.0190 nh         1 30E      -0.735300
      6 C06         -1.0620    -1.2160     0.1710 ca         1 30E       0.493900
      7 N07          0.0810    -0.5940     0.0730 nb         1 30E      -0.683000
      8 C08          1.2320    -1.2630     0.2460 cp         1 30E       0.307500
      9 C09          2.4860    -0.4950     0.1230 cp         1 30E      -0.042500
     10 C10          3.7110    -1.1410    -0.0420 ca         1 30E      -0.210500
     11 C11          4.8840    -0.3980    -0.1310 ca         1 30E       0.149600
     12 O12          6.1080    -0.9310    -0.2910 os         1 30E      -0.332100
     13 C13          6.2270    -2.3380    -0.3730 c3         1 30E       0.146400
     14 C14          4.8420     0.9970    -0.0530 ca         1 30E       0.017100
     15 O15          5.9910     1.7200    -0.1040 os         1 30E      -0.331100
     16 C16          6.3790     2.1180    -1.4120 c3         1 30E       0.149900
     17 C17          3.6090     1.6400     0.0900 ca         1 30E       0.149600
     18 O18          3.6590     2.9820     0.1420 os         1 30E      -0.332100
     19 C19          2.4500     3.6930     0.3250 c3         1 30E       0.146400
     20 C20          2.4380     0.8950     0.1810 ca         1 30E      -0.210500
     21 C21          1.1850    -2.6060     0.5630 ca         1 30E       0.316900
     22 N22          0.0360    -3.2800     0.6260 nb         1 30E      -0.735000
     23 C23         -1.0870    -2.6260     0.4120 ca         1 30E       0.547900
     24 N24         -2.2650    -3.3050     0.4370 nv         1 30E      -1.034900
     25 C25         -2.1630     0.7070    -0.7750 c6         1 30E       0.183800
     26 C26         -3.5490     1.1940    -1.1670 c6         1 30E      -0.056400
     27 C27         -4.4310     1.3740     0.0600 c6         1 30E      -0.189700
     28 C28         -5.8330     1.9440    -0.2320 c          1 30E       0.720000
     29 O29         -6.5860     2.0790     0.7550 o          1 30E      -0.733000
     30 O30         -6.1080     2.2440    -1.4110 o          1 30E      -0.733000
     31 H011        -6.2220    -1.8620     1.9810 hc         1 30E       0.018700
     32 H012        -6.2370    -2.9530     0.6000 hc         1 30E       0.018700
     33 H013        -4.7550    -2.7050     1.5070 hc         1 30E       0.018700
     34 H021        -4.7910    -1.3910    -0.6950 hc         1 30E       0.051200
     35 H022        -6.2530    -0.6100    -0.1580 hc         1 30E       0.051200
     36 H03         -4.9700     0.3010     1.8320 hc         1 30E       0.066700
     37 H041        -2.5990     0.3880     1.8450 h1         1 30E       0.030200
     38 H042        -3.0590    -1.3020     1.7610 h1         1 30E       0.030200
     39 H27         -3.9310     2.1110     0.7080 hc         1 30E       0.027700
     40 H251        -1.6530     1.4870    -0.1920 h1         1 30E       0.027200
     41 H252        -1.5560     0.5300    -1.6640 h1         1 30E       0.027200
     42 H21          2.0810    -3.1790     0.7680 h4         1 30E       0.015100
     43 H10          3.7480    -2.2170    -0.1250 ha         1 30E       0.133000
     44 H20          1.4780     1.3770     0.3040 ha         1 30E       0.133000
     45 H131         7.2850    -2.5490    -0.5070 h1         1 30E       0.041033
     46 H132         5.8830    -2.8320     0.5390 h1         1 30E       0.041033
     47 H133         5.6770    -2.7450    -1.2250 h1         1 30E       0.041033
     48 H161         6.5740     1.2580    -2.0570 h1         1 30E       0.029700
     49 H162         5.6230     2.7490    -1.8850 h1         1 30E       0.029700
     50 H163         7.2980     2.6920    -1.3120 h1         1 30E       0.029700
     51 H191         1.7460     3.5240    -0.4940 h1         1 30E       0.041033
     52 H192         1.9620     3.4310     1.2670 h1         1 30E       0.041033
     53 H193         2.7140     4.7470     0.3470 h1         1 30E       0.041033
     54 H241        -3.0230    -2.8940    -0.0850 hn         1 30E       0.479000
     55 H242        -2.1970    -4.3070     0.3500 hn         1 30E       0.479000
     56 H261        -3.4430     2.1430    -1.6980 hc         1 30E       0.050700
     57 H262        -4.0000     0.4930    -1.8720 hc         1 30E       0.050700
@<TRIPOS>BOND
     1     1     2 1   
     2     1    31 1   
     3     1    32 1   
     4     1    33 1   
     5     2     3 1   
     6     2    34 1   
     7     2    35 1   
     8     3     4 1   
     9     3    27 1   
    10     3    36 1   
    11     4     5 1   
    12     4    37 1   
    13     4    38 1   
    14     5     6 1   
    15     5    25 1   
    16     6     7 ar  
    17     6    23 ar  
    18     7     8 ar  
    19     8     9 1   
    20     8    21 ar  
    21     9    10 ar  
    22     9    20 ar  
    23    10    11 ar  
    24    10    43 1   
    25    11    12 1   
    26    11    14 ar  
    27    12    13 1   
    28    13    45 1   
    29    13    46 1   
    30    13    47 1   
    31    14    15 1   
    32    14    17 ar  
    33    15    16 1   
    34    16    48 1   
    35    16    49 1   
    36    16    50 1   
    37    17    18 1   
    38    17    20 ar  
    39    18    19 1   
    40    19    51 1   
    41    19    52 1   
    42    19    53 1   
    43    20    44 1   
    44    21    22 ar  
    45    21    42 1   
    46    22    23 ar  
    47    23    24 1   
    48    24    54 1   
    49    24    55 1   
    50    25    26 1   
    51    25    40 1   
    52    25    41 1   
    53    26    27 1   
    54    26    56 1   
    55    26    57 1   
    56    27    28 1   
    57    27    39 1   
    58    28    29 1   
    59    28    30 1   
@<TRIPOS>SUBSTRUCTURE
     1 30E         1 TEMP              0 ****  ****    0 ROOT
