@<TRIPOS>MOLECULE
30E
   57    59     1     0     0
SMALL
No Charge or Current Charge


@<TRIPOS>ATOM
      1 C01         -5.6490    -2.1690     1.4120 c3         1 30E      -0.093100
      2 C02         -5.3950    -1.1040     0.3230 c3         1 30E      -0.068400
      3 C03         -4.6170     0.1690     0.8060 c6         1 30E      -0.033700
      4 C04         -3.1470    -0.1630     1.2230 c6         1 30E       0.180800
      5 N05         -2.2720    -0.4660     0.0520 nh         1 30E      -0.735300
      6 C06         -1.0970    -1.2420     0.2680 ca         1 30E       0.493900
      7 N07          0.0710    -0.5820     0.0610 nb         1 30E      -0.683000
      8 C08          1.2200    -1.2930     0.2520 cp         1 30E       0.307500
      9 C09          2.5260    -0.5610     0.0310 cp         1 30E      -0.042500
     10 C10          3.7270    -1.2580    -0.2480 ca         1 30E      -0.210500
     11 C11          4.9470    -0.5790    -0.4530 ca         1 30E       0.149600
     12 O12          6.1190    -1.2670    -0.7270 os         1 30E      -0.332100
     13 C13          6.1820    -2.7020    -0.8140 c3         1 30E       0.146400
     14 C14          5.0040     0.8330    -0.3860 ca         1 30E       0.017100
     15 O15          6.2560     1.4130    -0.6030 os         1 30E      -0.331100
     16 C16          6.5310     2.8250    -0.5790 c3         1 30E       0.149900
     17 C17          3.8060     1.5620    -0.1120 ca         1 30E       0.149600
     18 O18          3.8220     2.9460    -0.0420 os         1 30E      -0.332100
     19 C19          2.6500     3.7390     0.2210 c3         1 30E       0.146400
     20 C20          2.5980     0.8550     0.0890 ca         1 30E      -0.210500
     21 C21          1.1700    -2.6760     0.6580 ca         1 30E       0.316900
     22 N22          0.0130    -3.3670     0.8660 nb         1 30E      -0.735000
     23 C23         -1.1000    -2.6460     0.6730 ca         1 30E       0.547900
     24 N24         -2.1830    -3.4430     0.8710 nv         1 30E      -1.034900
     25 C25         -2.2590     0.6210    -0.9700 c6         1 30E       0.183800
     26 C26         -3.6870     1.0040    -1.4300 c6         1 30E      -0.056400
     27 C27         -4.5910     1.3560    -0.2180 c6         1 30E      -0.189700
     28 C28         -5.9840     1.9060    -0.6270 c          1 30E       0.720000
     29 O29         -6.2970     3.0140    -0.2160 o          1 30E      -0.733000
     30 O30         -6.6610     1.2750    -1.4260 o          1 30E      -0.733000
     31 H011        -6.2170    -1.7380     2.2460 hc         1 30E       0.018700
     32 H012        -6.2320    -3.0010     0.9990 hc         1 30E       0.018700
     33 H013        -4.7140    -2.5770     1.8080 hc         1 30E       0.018700
     34 H021        -4.8690    -1.5770    -0.5140 hc         1 30E       0.051200
     35 H022        -6.3800    -0.8200    -0.0600 hc         1 30E       0.051200
     36 H03         -5.1470     0.5170     1.7040 hc         1 30E       0.066700
     37 H041        -2.7330     0.7020     1.7610 h1         1 30E       0.030200
     38 H042        -3.1420    -0.9990     1.9360 h1         1 30E       0.030200
     39 H27         -4.1070     2.1790     0.3280 hc         1 30E       0.027700
     40 H251        -1.7660     1.5130    -0.5560 h1         1 30E       0.027200
     41 H252        -1.6850     0.3050    -1.8530 h1         1 30E       0.027200
     42 H21          2.0840    -3.2400     0.8310 h4         1 30E       0.015100
     43 H10          3.6960    -2.3390    -0.3220 ha         1 30E       0.133000
     44 H20          1.6840     1.3980     0.3050 ha         1 30E       0.133000
     45 H131         7.2080    -3.0240    -1.0350 h1         1 30E       0.041033
     46 H132         5.8780    -3.1640     0.1330 h1         1 30E       0.041033
     47 H133         5.5310    -3.0730    -1.6160 h1         1 30E       0.041033
     48 H161         5.9540     3.3510    -1.3500 h1         1 30E       0.029700
     49 H162         6.2990     3.2540     0.4040 h1         1 30E       0.029700
     50 H163         7.5950     3.0040    -0.7780 h1         1 30E       0.029700
     51 H191         1.8880     3.5770    -0.5520 h1         1 30E       0.041033
     52 H192         2.2230     3.4910     1.2000 h1         1 30E       0.041033
     53 H193         2.9080     4.8050     0.2240 h1         1 30E       0.041033
     54 H241        -3.0600    -3.1270     0.4730 hn         1 30E       0.479000
     55 H242        -2.0060    -4.4400     0.8720 hn         1 30E       0.479000
     56 H261        -3.6290     1.8610    -2.1140 hc         1 30E       0.050700
     57 H262        -4.1230     0.1770    -2.0070 hc         1 30E       0.050700
@<TRIPOS>BOND
     1     1     2 1   
     2     1    31 1   
     3     1    32 1   
     4     1    33 1   
     5     2     3 1   
     6     2    34 1   
     7     2    35 1   
     8     3     4 1   
     9     3    27 1   
    10     3    36 1   
    11     4     5 1   
    12     4    37 1   
    13     4    38 1   
    14     5     6 1   
    15     5    25 1   
    16     6     7 ar  
    17     6    23 ar  
    18     7     8 ar  
    19     8     9 1   
    20     8    21 ar  
    21     9    10 ar  
    22     9    20 ar  
    23    10    11 ar  
    24    10    43 1   
    25    11    12 1   
    26    11    14 ar  
    27    12    13 1   
    28    13    45 1   
    29    13    46 1   
    30    13    47 1   
    31    14    15 1   
    32    14    17 ar  
    33    15    16 1   
    34    16    48 1   
    35    16    49 1   
    36    16    50 1   
    37    17    18 1   
    38    17    20 ar  
    39    18    19 1   
    40    19    51 1   
    41    19    52 1   
    42    19    53 1   
    43    20    44 1   
    44    21    22 ar  
    45    21    42 1   
    46    22    23 ar  
    47    23    24 1   
    48    24    54 1   
    49    24    55 1   
    50    25    26 1   
    51    25    40 1   
    52    25    41 1   
    53    26    27 1   
    54    26    56 1   
    55    26    57 1   
    56    27    28 1   
    57    27    39 1   
    58    28    29 1   
    59    28    30 1   
@<TRIPOS>SUBSTRUCTURE
     1 30E         1 TEMP              0 ****  ****    0 ROOT
