@<TRIPOS>MOLECULE
30F
   11    10     1     0     0
SMALL
No Charge or Current Charge


@<TRIPOS>ATOM
      1 C10          2.4170    -0.2410    -0.0030 c          1 30F       0.713200
      2 C08          0.9440     0.2480     0.0610 ce         1 30F       0.072800
      3 C09         -0.0950    -0.6220     0.0170 c2         1 30F      -0.173400
      4 O2           2.6390    -1.4440    -0.0840 o          1 30F      -0.707500
      5 SE2         -1.8300    -0.1250     0.0710 sh         1 30F      -0.595400
      6 N04          0.7090     1.6380     0.1590 nv         1 30F      -0.954000
      7 H13          0.0830    -1.6970    -0.0610 h4         1 30F       0.215000
      8 H2          -2.3680    -1.3720    -0.0040 hs         1 30F       0.216800
      9 H1           1.4850     2.2850     0.0180 hn         1 30F       0.459500
     10 OXT          3.3190     0.5920     0.0210 o          1 30F      -0.707500
     11 H3          -0.2420     1.9790     0.0420 hn         1 30F       0.459500
@<TRIPOS>BOND
     1     1     2 1   
     2     1     4 1   
     3     1    10 1   
     4     2     3 2   
     5     2     6 1   
     6     3     5 1   
     7     3     7 1   
     8     5     8 1   
     9     6     9 1   
    10     6    11 1   
@<TRIPOS>SUBSTRUCTURE
     1 30F         1 TEMP              0 ****  ****    0 ROOT
