@<TRIPOS>MOLECULE
30F
   11    10     1     0     0
SMALL
bcc


@<TRIPOS>ATOM
      1 C10          2.3920    -0.1900    -0.0360 c          1 30F       0.923800
      2 C08          0.9090     0.2060     0.1370 ce         1 30F       0.072800
      3 C09         -0.0180    -0.7590     0.3070 c2         1 30F      -0.123400
      4 O2           2.6780    -1.3910     0.0880 o          1 30F      -0.812800
      5 SE2         -1.8600    -0.3910     0.5980 sh         1 30F      -0.595400
      6 N04          0.6820     1.5440     0.1250 nv         1 30F      -0.843600
      7 H13          0.2970    -1.7920     0.3450 h4         1 30F       0.165000
      8 H2          -2.3580    -0.7250    -0.7330 hs         1 30F       0.216800
      9 H1           1.4290     2.1050    -0.2480 hn         1 30F       0.404300
     10 OXT          3.1630     0.7510    -0.3000 o          1 30F      -0.812800
     11 H3          -0.2520     1.8820    -0.0440 hn         1 30F       0.404300
@<TRIPOS>BOND
     1     1     2 1   
     2     1     4 1   
     3     1    10 1   
     4     2     3 2   
     5     2     6 1   
     6     3     5 1   
     7     3     7 1   
     8     5     8 1   
     9     6     9 1   
    10     6    11 1   
@<TRIPOS>SUBSTRUCTURE
     1 30F         1 TEMP              0 ****  ****    0 ROOT
