@<TRIPOS>MOLECULE
30G
   24    26     1     0     0
SMALL
abcg2


@<TRIPOS>ATOM
      1 C9           2.8060     1.8650     0.2450 ca         1 30G      -0.099000
      2 C13          3.6670     0.8300    -0.0830 ca         1 30G      -0.111000
      3 C4           1.4380     1.6390     0.3390 ca         1 30G      -0.132000
      4 C8           3.1610    -0.4460    -0.3050 ca         1 30G      -0.098000
      5 C1           0.9210     0.3700     0.1020 ca         1 30G       0.249000
      6 C3           1.8010    -0.6740    -0.2170 ca         1 30G       0.072100
      7 C5          -0.8880    -1.1850     0.1290 c2         1 30G       0.542200
      8 C12         -2.8200     0.7630    -0.0310 c          1 30G       0.544000
      9 C10          0.1710    -2.2240     0.3190 c6         1 30G       0.126300
     10 C6          -1.3930     1.2010     0.1950 c6         1 30G       0.139800
     11 N14         -3.0360    -0.5590    -0.1030 ns         1 30G      -0.260900
     12 N2          -0.4500     0.1040     0.1180 nh         1 30G      -0.784400
     13 N11         -2.1040    -1.5530     0.0280 n2         1 30G      -0.496300
     14 O15         -3.7100     1.5910    -0.1250 o          1 30G      -0.541000
     15 O7           1.3090    -1.9140    -0.4640 os         1 30G      -0.323100
     16 H1           3.1910     2.8580     0.4310 ha         1 30G       0.119000
     17 H2           4.7320     1.0040    -0.1560 ha         1 30G       0.121000
     18 H3           0.7840     2.4620     0.5920 ha         1 30G       0.120000
     19 H4           3.8190    -1.2680    -0.5560 ha         1 30G       0.132000
     20 H6           0.4440    -2.2820     1.3790 h1         1 30G       0.084200
     21 H5          -0.2000    -3.1950     0.0010 h1         1 30G       0.084200
     22 H7          -1.1560     1.9520    -0.5630 h1         1 30G       0.077200
     23 H8          -1.3480     1.6990     1.1700 h1         1 30G       0.077200
     24 H9          -3.9820    -0.8910    -0.2200 hn         1 30G       0.355500
@<TRIPOS>BOND
     1     1     2 ar  
     2     1     3 ar  
     3     1    16 1   
     4     2     4 ar  
     5     2    17 1   
     6     3     5 ar  
     7     3    18 1   
     8     4     6 ar  
     9     4    19 1   
    10     5     6 ar  
    11     5    12 1   
    12     6    15 1   
    13     7     9 1   
    14     7    12 1   
    15     7    13 2   
    16     8    10 1   
    17     8    11 1   
    18     8    14 2   
    19     9    15 1   
    20     9    20 1   
    21     9    21 1   
    22    10    12 1   
    23    10    22 1   
    24    10    23 1   
    25    11    13 1   
    26    11    24 1   
@<TRIPOS>SUBSTRUCTURE
     1 30G         1 TEMP              0 ****  ****    0 ROOT
