@<TRIPOS>MOLECULE
30G
   24    26     1     0     0
SMALL
No Charge or Current Charge


@<TRIPOS>ATOM
      1 C9           2.8560     1.9220     0.1840 ca         1 30G      -0.099000
      2 C13          3.7420     0.8740    -0.1090 ca         1 30G      -0.111000
      3 C4           1.4760     1.6710     0.2990 ca         1 30G      -0.132000
      4 C8           3.2520    -0.4310    -0.2750 ca         1 30G      -0.098000
      5 C1           0.9610     0.3660     0.1270 ca         1 30G       0.249000
      6 C3           1.8770    -0.6890    -0.1440 ca         1 30G       0.072100
      7 C5          -0.8860    -1.2380     0.1660 c2         1 30G       0.542200
      8 C12         -2.9110     0.8160    -0.0230 c          1 30G       0.544000
      9 C10          0.1640    -2.3460     0.2930 c6         1 30G       0.126300
     10 C6          -1.4390     1.2180     0.2340 c6         1 30G       0.139800
     11 N14         -3.1480    -0.5480    -0.0810 ns         1 30G      -0.260900
     12 N2          -0.4380     0.0920     0.1940 nh         1 30G      -0.784400
     13 N11         -2.1500    -1.5200     0.0480 n2         1 30G      -0.496300
     14 O15         -3.8120     1.6340    -0.1680 o          1 30G      -0.541000
     15 O7           1.4370    -1.9870    -0.3030 os         1 30G      -0.323100
     16 H1           3.2360     2.9320     0.3180 ha         1 30G       0.119000
     17 H2           4.8080     1.0720    -0.2030 ha         1 30G       0.121000
     18 H3           0.8190     2.5050     0.5230 ha         1 30G       0.120000
     19 H4           3.9370    -1.2460    -0.4950 ha         1 30G       0.132000
     20 H6           0.3230    -2.5480     1.3600 h1         1 30G       0.084200
     21 H5          -0.2010    -3.2700    -0.1730 h1         1 30G       0.084200
     22 H7          -1.1980     1.9820    -0.5180 h1         1 30G       0.077200
     23 H8          -1.4320     1.6920     1.2260 h1         1 30G       0.077200
     24 H9          -4.1170    -0.8070    -0.2550 hn         1 30G       0.355500
@<TRIPOS>BOND
     1     1     2 ar  
     2     1     3 ar  
     3     1    16 1   
     4     2     4 ar  
     5     2    17 1   
     6     3     5 ar  
     7     3    18 1   
     8     4     6 ar  
     9     4    19 1   
    10     5     6 ar  
    11     5    12 1   
    12     6    15 1   
    13     7     9 1   
    14     7    12 1   
    15     7    13 2   
    16     8    10 1   
    17     8    11 1   
    18     8    14 2   
    19     9    15 1   
    20     9    20 1   
    21     9    21 1   
    22    10    12 1   
    23    10    22 1   
    24    10    23 1   
    25    11    13 1   
    26    11    24 1   
@<TRIPOS>SUBSTRUCTURE
     1 30G         1 TEMP              0 ****  ****    0 ROOT
