@<TRIPOS>MOLECULE
30H
   43    44     1     0     0
SMALL
bcc


@<TRIPOS>ATOM
      1 O4          -2.3080    -0.7490     2.0330 o          1 30H      -0.558100
      2 C6          -0.7950    -2.5570    -0.8550 c3         1 30H      -0.103100
      3 C11         -0.5430     0.3990    -0.9590 c3         1 30H       0.282100
      4 C12         -2.0100     0.7360    -1.0340 ca         1 30H      -0.244600
      5 C13         -2.8000     0.2580    -2.0690 ca         1 30H      -0.086000
      6 C14         -4.1530     0.5620    -2.0910 ca         1 30H      -0.262300
      7 C15         -4.6660     1.3450    -1.0710 ca         1 30H       0.402200
      8 C17         -2.6290     1.5290    -0.0700 ca         1 30H       0.437200
      9 C18          2.2930     0.5200     0.5630 ca         1 30H      -0.304500
     10 C19          3.0190    -0.5990     0.1670 ca         1 30H      -0.010000
     11 C20          4.2490    -0.4610    -0.4560 ca         1 30H      -0.135300
     12 C1          -2.2060    -1.4640     1.0540 c          1 30H       0.653100
     13 C2          -0.8360    -1.7010     0.4040 c3         1 30H       0.165500
     14 N3          -3.2390    -2.0930     0.4790 ns         1 30H      -0.453400
     15 O5          -4.4710    -2.0470     1.0550 oh         1 30H      -0.376100
     16 N7          -0.1830    -0.4170     0.1960 n3         1 30H      -0.782500
     17 S8           0.7400     0.2660     1.3770 sy         1 30H       1.339200
     18 O9           0.9260    -0.7360     2.4140 o          1 30H      -0.597800
     19 O10          0.2360     1.5810     1.7470 o          1 30H      -0.597800
     20 N16         -3.9190     1.8290    -0.0810 nb         1 30H      -0.655000
     21 C21          4.7040     0.8390    -0.6570 ca         1 30H       0.186900
     22 C22          4.0020     1.9610    -0.2710 ca         1 30H      -0.191000
     23 C23          2.7730     1.8010     0.3530 ca         1 30H      -0.006000
     24 F24          5.8870     1.0020    -1.2600 f          1 30H      -0.134900
     25 C25          5.0580    -1.6430    -0.8940 c3         1 30H      -0.042800
     26 H1           0.2350    -2.6430    -1.2000 hc         1 30H       0.047033
     27 H2          -1.1420    -3.5660    -0.6350 hc         1 30H       0.047033
     28 H3          -1.3910    -2.1660    -1.6780 hc         1 30H       0.047033
     29 H4          -0.2420    -0.1250    -1.8690 h1         1 30H       0.057700
     30 H5           0.0520     1.3140    -0.9440 h1         1 30H       0.057700
     31 H6          -2.3640    -0.3470    -2.8550 ha         1 30H       0.130000
     32 H7          -4.7970     0.1980    -2.8810 ha         1 30H       0.142000
     33 H8          -5.7190     1.6010    -1.0540 h4         1 30H       0.021100
     34 H9          -2.0490     1.9300     0.7520 h4         1 30H       0.054100
     35 H10          2.6340    -1.5950     0.3430 ha         1 30H       0.144000
     36 H11         -0.2680    -2.2420     1.1630 h1         1 30H       0.107700
     37 H12         -3.1550    -2.7440    -0.2860 hn         1 30H       0.339500
     38 H13         -4.9360    -1.3090     0.6380 ho         1 30H       0.405000
     39 H14          4.4060     2.9480    -0.4530 ha         1 30H       0.157000
     40 H15          2.2130     2.6720     0.6620 ha         1 30H       0.165000
     41 H16          5.2130    -1.6420    -1.9740 hc         1 30H       0.050700
     42 H17          6.0420    -1.6500    -0.4240 hc         1 30H       0.050700
     43 H18          4.5550    -2.5710    -0.6300 hc         1 30H       0.050700
@<TRIPOS>BOND
     1     1    12 2   
     2     2    13 1   
     3     2    26 1   
     4     2    27 1   
     5     2    28 1   
     6     3     4 1   
     7     3    16 1   
     8     3    29 1   
     9     3    30 1   
    10     4     5 ar  
    11     4     8 ar  
    12     5     6 ar  
    13     5    31 1   
    14     6     7 ar  
    15     6    32 1   
    16     7    20 ar  
    17     7    33 1   
    18     8    20 ar  
    19     8    34 1   
    20     9    10 ar  
    21     9    17 1   
    22     9    23 ar  
    23    10    11 ar  
    24    10    35 1   
    25    11    21 ar  
    26    11    25 1   
    27    12    13 1   
    28    12    14 1   
    29    13    16 1   
    30    13    36 1   
    31    14    15 1   
    32    14    37 1   
    33    15    38 1   
    34    16    17 1   
    35    17    18 2   
    36    17    19 2   
    37    21    22 ar  
    38    21    24 1   
    39    22    23 ar  
    40    22    39 1   
    41    23    40 1   
    42    25    41 1   
    43    25    42 1   
    44    25    43 1   
@<TRIPOS>SUBSTRUCTURE
     1 30H         1 TEMP              0 ****  ****    0 ROOT
