@<TRIPOS>MOLECULE
30H
   43    44     1     0     0
SMALL
No Charge or Current Charge


@<TRIPOS>ATOM
      1 O4          -2.6470    -0.8930     2.1340 o          1 30H      -0.558100
      2 C6          -1.2200    -3.2380    -0.4360 c3         1 30H      -0.103100
      3 C11         -0.3020    -0.3560    -1.0680 c3         1 30H       0.282100
      4 C12         -1.5420     0.5270    -1.1420 ca         1 30H      -0.179300
      5 C13         -2.7180     0.0710    -1.7670 ca         1 30H      -0.068000
      6 C14         -3.8160     0.9420    -1.8400 ca         1 30H      -0.179000
      7 C15         -3.7010     2.2380    -1.3120 ca         1 30H       0.336900
      8 C17         -1.5100     1.8520    -0.6620 ca         1 30H       0.371900
      9 C18          2.1460     0.4140     0.6450 ca         1 30H      -0.304500
     10 C19          3.0800    -0.4790     0.0840 ca         1 30H       0.008000
     11 C20          4.2200     0.0110    -0.5820 ca         1 30H      -0.135300
     12 C1          -2.5280    -1.5990     1.1380 c          1 30H       0.586100
     13 C2          -1.1240    -2.1090     0.6250 c3         1 30H       0.165500
     14 N3          -3.6560    -2.0360     0.4370 ns         1 30H      -0.386400
     15 O5          -4.9870    -1.8770     0.9890 oh         1 30H      -0.415100
     16 N7          -0.1000    -1.0800     0.2150 n3         1 30H      -0.782500
     17 S8           0.6900    -0.2400     1.4750 sy         1 30H       1.197600
     18 O9           1.1730    -1.2760     2.3940 o          1 30H      -0.527000
     19 O10         -0.1770     0.8530     1.9200 o          1 30H      -0.527000
     20 N16         -2.5670     2.6970    -0.7390 nb         1 30H      -0.655000
     21 C21          4.4130     1.4040    -0.6760 ca         1 30H       0.222000
     22 C22          3.4860     2.2950    -0.1150 ca         1 30H      -0.173000
     23 C23          2.3490     1.8060     0.5480 ca         1 30H       0.012000
     24 F24          5.5010     1.8980    -1.3100 f          1 30H      -0.170000
     25 C25          5.2270    -0.9560    -1.1940 c3         1 30H      -0.042800
     26 H1          -0.2180    -3.6030    -0.6890 hc         1 30H       0.047033
     27 H2          -1.7910    -4.0900    -0.0460 hc         1 30H       0.047033
     28 H3          -1.6970    -2.8950    -1.3610 hc         1 30H       0.047033
     29 H4          -0.3620    -1.0840    -1.8860 h1         1 30H       0.057700
     30 H5           0.5720     0.2600    -1.3140 h1         1 30H       0.057700
     31 H6          -2.7820    -0.9280    -2.1900 ha         1 30H       0.112000
     32 H7          -4.7450     0.6270    -2.3080 ha         1 30H       0.124000
     33 H8          -4.5380     2.9340    -1.3610 h4         1 30H       0.021100
     34 H9          -0.6040     2.2620    -0.2190 h4         1 30H       0.054100
     35 H10          2.9140    -1.5530     0.1580 ha         1 30H       0.126000
     36 H11         -0.7360    -2.6300     1.5100 h1         1 30H       0.107700
     37 H12         -3.5550    -2.7470    -0.2850 hn         1 30H       0.339500
     38 H13         -5.4940    -1.4550     0.2560 ho         1 30H       0.444000
     39 H14          3.6510     3.3660    -0.1950 ha         1 30H       0.139000
     40 H15          1.6380     2.5080     0.9820 ha         1 30H       0.147000
     41 H16          5.3180    -0.7960    -2.2750 hc         1 30H       0.050700
     42 H17          6.2210    -0.8200    -0.7510 hc         1 30H       0.050700
     43 H18          4.9370    -2.0020    -1.0390 hc         1 30H       0.050700
@<TRIPOS>BOND
     1     1    12 2   
     2     2    13 1   
     3     2    26 1   
     4     2    27 1   
     5     2    28 1   
     6     3     4 1   
     7     3    16 1   
     8     3    29 1   
     9     3    30 1   
    10     4     5 ar  
    11     4     8 ar  
    12     5     6 ar  
    13     5    31 1   
    14     6     7 ar  
    15     6    32 1   
    16     7    20 ar  
    17     7    33 1   
    18     8    20 ar  
    19     8    34 1   
    20     9    10 ar  
    21     9    17 1   
    22     9    23 ar  
    23    10    11 ar  
    24    10    35 1   
    25    11    21 ar  
    26    11    25 1   
    27    12    13 1   
    28    12    14 1   
    29    13    16 1   
    30    13    36 1   
    31    14    15 1   
    32    14    37 1   
    33    15    38 1   
    34    16    17 1   
    35    17    18 2   
    36    17    19 2   
    37    21    22 ar  
    38    21    24 1   
    39    22    23 ar  
    40    22    39 1   
    41    23    40 1   
    42    25    41 1   
    43    25    42 1   
    44    25    43 1   
@<TRIPOS>SUBSTRUCTURE
     1 30H         1 TEMP              0 ****  ****    0 ROOT
