@<TRIPOS>MOLECULE
30I
   51    53     1     0     0
SMALL
bcc


@<TRIPOS>ATOM
      1 C10          2.9710    -3.2330     1.2570 c3         1 30I      -0.082900
      2 O2           3.1430     4.0400    -0.1860 os         1 30I      -0.409100
      3 O1          -4.7440    -1.1810     0.4830 o          1 30I      -0.580100
      4 N3          -3.9640     0.9060    -0.0430 ns         1 30I      -0.500400
      5 C1          -5.1380     1.6510    -0.1320 c2         1 30I       0.659800
      6 N2          -6.2680     1.0990    -0.3240 n2         1 30I      -0.824100
      7 N1          -4.8720     2.9970    -0.0700 nv         1 30I      -0.970800
      8 C3          -2.4160    -0.8730     0.1870 ca         1 30I       0.098500
      9 N7          -1.4810     0.0380    -0.0470 nb         1 30I      -0.602000
     10 C12         -0.2090    -0.2690    -0.1160 cp         1 30I       0.256500
     11 C13          0.7320     0.8610    -0.1560 cp         1 30I      -0.397100
     12 C14          1.8000     0.9710     0.7230 ca         1 30I       0.488200
     13 C16          0.5510     1.9540    -1.0010 ca         1 30I       0.488200
     14 N9           1.3520     3.0040    -1.0010 nb         1 30I      -0.751000
     15 C15          2.3570     2.9760    -0.1340 ca         1 30I       0.876300
     16 N8           2.6150     2.0160     0.7360 nb         1 30I      -0.751000
     17 C17          4.2440     4.1140     0.7130 c3         1 30I       0.139700
     18 C5           0.1710    -1.6470    -0.0380 ca         1 30I       0.667900
     19 N5          -0.7360    -2.5450     0.2990 nb         1 30I      -0.838000
     20 C4          -2.0160    -2.2060     0.4540 ca         1 30I       0.685900
     21 N4          -2.8520    -3.1680     0.8590 nv         1 30I      -0.943500
     22 N6           1.4480    -2.0690    -0.2910 nh         1 30I      -0.780300
     23 C11          1.8780    -3.3730     0.2000 c3         1 30I       0.217300
     24 C9           4.3420    -2.8320     0.7270 c3         1 30I      -0.069400
     25 C8           4.3640    -1.6190    -0.2000 c3         1 30I      -0.069400
     26 C7           3.6240    -1.8560    -1.5160 c3         1 30I      -0.082900
     27 C6           2.1270    -1.5710    -1.4880 c3         1 30I       0.217300
     28 H1           2.6280    -2.5100     2.0040 hc         1 30I       0.045700
     29 H2           3.0630    -4.1900     1.7800 hc         1 30I       0.045700
     30 H3          -3.0900     1.3940    -0.1950 hn         1 30I       0.349500
     31 H4          -7.0030     1.7980    -0.3230 hn         1 30I       0.380400
     32 H5          -4.1150     3.2910     0.5290 hn         1 30I       0.403800
     33 H6          -5.6780     3.5960     0.0090 hn         1 30I       0.403800
     34 H7           2.0050     0.1890     1.4460 h4         1 30I       0.035100
     35 H8          -0.2720     1.9690    -1.7070 h4         1 30I       0.035100
     36 H9           4.7490     5.0480     0.4830 h1         1 30I       0.050033
     37 H10          3.9140     4.1270     1.7520 h1         1 30I       0.050033
     38 H11          4.9360     3.2840     0.5720 h1         1 30I       0.050033
     39 H12         -3.8440    -3.0000     0.8660 hn         1 30I       0.460800
     40 H13         -2.5120    -4.1120     0.9150 hn         1 30I       0.460800
     41 H14          2.2170    -3.9940    -0.6340 h1         1 30I       0.051450
     42 H15          1.0230    -3.8840     0.6320 h1         1 30I       0.051450
     43 H16          5.0070    -2.6510     1.5750 hc         1 30I       0.041450
     44 H17          4.7730    -3.6800     0.1830 hc         1 30I       0.041450
     45 H18          3.9640    -0.7380     0.3100 hc         1 30I       0.041450
     46 H19          5.4070    -1.3850    -0.4250 hc         1 30I       0.041450
     47 H20          4.0380    -1.2160    -2.2980 hc         1 30I       0.045700
     48 H21          3.8080    -2.8810    -1.8500 hc         1 30I       0.045700
     49 H22          1.6650    -2.0090    -2.3800 h1         1 30I       0.051450
     50 H23          1.9840    -0.4960    -1.5660 h1         1 30I       0.051450
     51 C2          -3.8230    -0.4220     0.2260 c          1 30I       0.622600
@<TRIPOS>BOND
     1     1    23 1   
     2     1    24 1   
     3     1    28 1   
     4     1    29 1   
     5     2    15 1   
     6     2    17 1   
     7     3    51 2   
     8     4     5 1   
     9     4    30 1   
    10     4    51 1   
    11     5     6 2   
    12     5     7 1   
    13     6    31 1   
    14     7    32 1   
    15     7    33 1   
    16     8     9 ar  
    17     8    20 ar  
    18     8    51 1   
    19     9    10 ar  
    20    10    11 1   
    21    10    18 ar  
    22    11    12 ar  
    23    11    13 ar  
    24    12    16 ar  
    25    12    34 1   
    26    13    14 ar  
    27    13    35 1   
    28    14    15 ar  
    29    15    16 ar  
    30    17    36 1   
    31    17    37 1   
    32    17    38 1   
    33    18    19 ar  
    34    18    22 1   
    35    19    20 ar  
    36    20    21 1   
    37    21    39 1   
    38    21    40 1   
    39    22    23 1   
    40    22    27 1   
    41    23    41 1   
    42    23    42 1   
    43    24    25 1   
    44    24    43 1   
    45    24    44 1   
    46    25    26 1   
    47    25    45 1   
    48    25    46 1   
    49    26    27 1   
    50    26    47 1   
    51    26    48 1   
    52    27    49 1   
    53    27    50 1   
@<TRIPOS>SUBSTRUCTURE
     1 30I         1 TEMP              0 ****  ****    0 ROOT
