@<TRIPOS>MOLECULE
30I
   51    53     1     0     0
SMALL
No Charge or Current Charge


@<TRIPOS>ATOM
      1 C10          3.0860    -2.8440     1.5630 c3         1 30I      -0.082900
      2 O2           3.3280     4.1430    -0.1920 os         1 30I      -0.432300
      3 O1          -4.8840    -1.2610     0.0220 o          1 30I      -0.580100
      4 N3          -4.2380     0.9270     0.0550 ns         1 30I      -0.433400
      5 C1          -5.4320     1.5730     0.0150 c2         1 30I       0.659800
      6 N2          -6.4200     1.2640    -0.6960 n2         1 30I      -0.824100
      7 N1          -5.2930     2.7570     0.6210 nv         1 30I      -1.081200
      8 C3          -2.5100    -0.7790     0.0210 ca         1 30I       0.098500
      9 N7          -1.5830     0.2350    -0.0440 nb         1 30I      -0.602000
     10 C12         -0.2770    -0.1460    -0.0640 cp         1 30I       0.256500
     11 C13          0.6950     0.9950    -0.0910 cp         1 30I      -0.266500
     12 C14          1.9160     0.9640     0.6200 ca         1 30I       0.159900
     13 C16          0.4410     2.1830    -0.8120 ca         1 30I       0.159900
     14 N9           1.3130     3.2090    -0.8400 nb         1 30I      -0.225000
     15 C15          2.4570     3.0750    -0.1380 ca         1 30I       0.350300
     16 N8           2.7890     1.9870     0.5960 nb         1 30I      -0.225000
     17 C17          4.5940     4.1200     0.5000 c3         1 30I       0.162900
     18 C5           0.0970    -1.5580    -0.0470 ca         1 30I       0.667900
     19 N5          -0.8240    -2.5490     0.0080 nb         1 30I      -0.838000
     20 C4          -2.0890    -2.1450     0.0590 ca         1 30I       0.685900
     21 N4          -2.8530    -3.2420     0.1340 nv         1 30I      -1.053900
     22 N6           1.4120    -2.0660    -0.1830 nh         1 30I      -0.780300
     23 C11          1.8810    -3.1930     0.6640 c3         1 30I       0.217300
     24 C9           4.4530    -2.8100     0.8440 c3         1 30I      -0.069400
     25 C8           4.5450    -1.8470    -0.3590 c3         1 30I      -0.069400
     26 C7           3.6200    -2.2280    -1.5380 c3         1 30I      -0.082900
     27 C6           2.1620    -1.7280    -1.4180 c3         1 30I       0.217300
     28 H1           2.9050    -1.8880     2.0650 hc         1 30I       0.045700
     29 H2           3.1450    -3.5980     2.3570 hc         1 30I       0.045700
     30 H3          -3.4160     1.5090     0.0850 hn         1 30I       0.349500
     31 H4          -7.1180     2.0130    -0.6260 hn         1 30I       0.380400
     32 H5          -4.7000     2.7270     1.4430 hn         1 30I       0.459000
     33 H6          -6.1580     3.2670     0.7630 hn         1 30I       0.459000
     34 H7           2.1950     0.1090     1.2310 h4         1 30I       0.035100
     35 H8          -0.4720     2.3120    -1.3920 h4         1 30I       0.035100
     36 H9           5.1390     5.0570     0.3310 h1         1 30I       0.050033
     37 H10          4.4480     4.0040     1.5820 h1         1 30I       0.050033
     38 H11          5.2220     3.2930     0.1420 h1         1 30I       0.050033
     39 H12         -3.8350    -3.1260    -0.1020 hn         1 30I       0.516000
     40 H13         -2.3950    -4.0930    -0.1640 hn         1 30I       0.516000
     41 H14          2.1220    -4.0670     0.0430 h1         1 30I       0.051450
     42 H15          1.0760    -3.5130     1.3390 h1         1 30I       0.051450
     43 H16          5.2210    -2.5310     1.5750 hc         1 30I       0.041450
     44 H17          4.7040    -3.8240     0.5090 hc         1 30I       0.041450
     45 H18          4.3390    -0.8190    -0.0360 hc         1 30I       0.041450
     46 H19          5.5820    -1.8570    -0.7180 hc         1 30I       0.041450
     47 H20          4.0390    -1.8020    -2.4580 hc         1 30I       0.045700
     48 H21          3.6280    -3.3160    -1.6810 hc         1 30I       0.045700
     49 H22          1.6080    -2.1190    -2.2830 h1         1 30I       0.051450
     50 H23          2.1900    -0.6380    -1.5380 h1         1 30I       0.051450
     51 C2          -3.9870    -0.4240     0.0310 c          1 30I       0.555600
@<TRIPOS>BOND
     1     1    23 1   
     2     1    24 1   
     3     1    28 1   
     4     1    29 1   
     5     2    15 1   
     6     2    17 1   
     7     3    51 2   
     8     4     5 1   
     9     4    30 1   
    10     4    51 1   
    11     5     6 2   
    12     5     7 1   
    13     6    31 1   
    14     7    32 1   
    15     7    33 1   
    16     8     9 ar  
    17     8    20 ar  
    18     8    51 1   
    19     9    10 ar  
    20    10    11 1   
    21    10    18 ar  
    22    11    12 ar  
    23    11    13 ar  
    24    12    16 ar  
    25    12    34 1   
    26    13    14 ar  
    27    13    35 1   
    28    14    15 ar  
    29    15    16 ar  
    30    17    36 1   
    31    17    37 1   
    32    17    38 1   
    33    18    19 ar  
    34    18    22 1   
    35    19    20 ar  
    36    20    21 1   
    37    21    39 1   
    38    21    40 1   
    39    22    23 1   
    40    22    27 1   
    41    23    41 1   
    42    23    42 1   
    43    24    25 1   
    44    24    43 1   
    45    24    44 1   
    46    25    26 1   
    47    25    45 1   
    48    25    46 1   
    49    26    27 1   
    50    26    47 1   
    51    26    48 1   
    52    27    49 1   
    53    27    50 1   
@<TRIPOS>SUBSTRUCTURE
     1 30I         1 TEMP              0 ****  ****    0 ROOT
