@<TRIPOS>MOLECULE
30J
   56    60     1     0     0
SMALL
abcg2


@<TRIPOS>ATOM
      1 C2          -2.0630     2.7320     0.0440 ca         1 30J       0.121000
      2 C3          -1.1750     1.6890     0.0670 ca         1 30J      -0.076000
      3 C42          4.7990    -0.5870    -0.0630 ca         1 30J       0.647900
      4 C44          6.7180     0.3940    -0.8670 ca         1 30J       0.438900
      5 C46          7.5470    -0.5390    -0.2490 ca         1 30J      -0.151000
      6 C47          6.9280    -1.5410     0.5110 ca         1 30J       0.007000
      7 C49          5.5640    -1.5700     0.6140 ca         1 30J      -0.242000
      8 C51          8.9550    -0.4610    -0.3840 cg         1 30J       0.340000
      9 C53          2.6150     1.6940     0.5040 c3         1 30J      -0.112100
     10 C11         -3.8120     1.3190    -0.7810 ca         1 30J      -0.076000
     11 C13         -3.3840     2.5630    -0.3990 ca         1 30J      -0.089000
     12 C18         -5.7020    -1.3920    -0.2690 ca         1 30J      -0.085300
     13 C19         -6.8700    -0.6410    -0.3500 ca         1 30J      -0.105000
     14 C21         -7.7620    -0.5950     0.7150 ca         1 30J      -0.108000
     15 C23         -7.4930    -1.3030     1.8780 ca         1 30J      -0.107000
     16 C25         -6.3310    -2.0600     1.9670 ca         1 30J      -0.108000
     17 C27         -5.4430    -2.1030     0.9010 ca         1 30J      -0.105000
     18 C30          1.3830     0.1680    -1.1150 c6         1 30J       0.175800
     19 CL1         -1.5580     4.2930     0.5830 cl         1 30J      -0.187000
     20 C5          -1.5980     0.4240    -0.3710 ca         1 30J      -0.061000
     21 C6          -0.7420    -0.7260    -0.4030 ca         1 30J       0.531900
     22 N7          -1.2050    -1.9180    -0.6500 nb         1 30J      -0.389000
     23 N8          -2.4970    -2.1160    -0.9450 nb         1 30J      -0.310000
     24 C9          -3.3290    -1.1210    -1.0470 ca         1 30J       0.311300
     25 C10         -2.9320     0.2210    -0.7550 ca         1 30J      -0.051000
     26 N29          0.6090    -0.5830    -0.1270 nh         1 30J      -0.740300
     27 C33          2.7280     0.6030    -0.5550 c6         1 30J       0.233500
     28 N35          3.4450    -0.5650    -0.0420 nh         1 30J      -0.769300
     29 C36          2.6730    -1.4220     0.8400 c6         1 30J       0.213800
     30 C39          1.3310    -1.7890     0.2320 c6         1 30J       0.178800
     31 N43          5.4070     0.3740    -0.7750 nb         1 30J      -0.766000
     32 N52         10.1020    -0.3940    -0.4960 n1         1 30J      -0.464000
     33 H1          -0.1700     1.8300     0.4390 ha         1 30J       0.149000
     34 H2           7.1490     1.1950    -1.4580 h4         1 30J       0.027100
     35 H3           7.5220    -2.2880     1.0200 ha         1 30J       0.126000
     36 H4           5.1050    -2.3420     1.2110 ha         1 30J       0.127000
     37 H5           2.0520     1.3630     1.3780 hc         1 30J       0.046033
     38 H6           3.6050     2.0050     0.8400 hc         1 30J       0.046033
     39 H7           2.1170     2.5730     0.0930 hc         1 30J       0.046033
     40 H8          -4.8380     1.1940    -1.0960 ha         1 30J       0.132000
     41 H9          -4.0610     3.4050    -0.4190 ha         1 30J       0.135000
     42 H10         -4.7340    -2.4730    -1.8410 hc         1 30J       0.069700
     43 H11         -5.0800    -0.8040    -2.2370 hc         1 30J       0.069700
     44 H12         -7.0890    -0.0860    -1.2550 ha         1 30J       0.115500
     45 H13         -8.6650    -0.0040     0.6350 ha         1 30J       0.114000
     46 H14         -8.1840    -1.2670     2.7100 ha         1 30J       0.114000
     47 H15         -6.1160    -2.6210     2.8680 ha         1 30J       0.114000
     48 H16         -4.5420    -2.7000     0.9790 ha         1 30J       0.115500
     49 H17          1.5470    -0.4540    -2.0060 h1         1 30J       0.055200
     50 H18          0.8410     1.0540    -1.4430 h1         1 30J       0.055200
     51 H19          3.2960     0.9920    -1.3970 h1         1 30J       0.094700
     52 H20          3.2010    -2.3540     1.0220 h1         1 30J       0.053700
     53 H21          2.5220    -0.9400     1.8120 h1         1 30J       0.053700
     54 H22          0.7650    -2.3530     0.9720 h1         1 30J       0.064200
     55 H23          1.4860    -2.4440    -0.6350 h1         1 30J       0.064200
     56 C15         -4.7400    -1.4610    -1.4330 c3         1 30J      -0.083400
@<TRIPOS>BOND
     1     1     2 ar  
     2     1    11 ar  
     3     1    19 1   
     4     2    20 ar  
     5     2    33 1   
     6     3     7 ar  
     7     3    28 1   
     8     3    31 ar  
     9     4     5 ar  
    10     4    31 ar  
    11     4    34 1   
    12     5     6 ar  
    13     5     8 1   
    14     6     7 ar  
    15     6    35 1   
    16     7    36 1   
    17     8    32 3   
    18     9    27 1   
    19     9    37 1   
    20     9    38 1   
    21     9    39 1   
    22    10    11 ar  
    23    10    25 ar  
    24    10    40 1   
    25    11    41 1   
    26    12    13 ar  
    27    12    17 ar  
    28    12    56 1   
    29    13    14 ar  
    30    13    44 1   
    31    14    15 ar  
    32    14    45 1   
    33    15    16 ar  
    34    15    46 1   
    35    16    17 ar  
    36    16    47 1   
    37    17    48 1   
    38    18    26 1   
    39    18    27 1   
    40    18    49 1   
    41    18    50 1   
    42    20    21 ar  
    43    20    25 ar  
    44    21    22 ar  
    45    21    26 1   
    46    22    23 ar  
    47    23    24 ar  
    48    24    25 ar  
    49    24    56 1   
    50    26    30 1   
    51    27    28 1   
    52    27    51 1   
    53    28    29 1   
    54    29    30 1   
    55    29    52 1   
    56    29    53 1   
    57    30    54 1   
    58    30    55 1   
    59    42    56 1   
    60    43    56 1   
@<TRIPOS>SUBSTRUCTURE
     1 30J         1 TEMP              0 ****  ****    0 ROOT
