@<TRIPOS>MOLECULE
30J
   56    60     1     0     0
SMALL
No Charge or Current Charge


@<TRIPOS>ATOM
      1 C2          -2.1130     2.7510     0.3310 ca         1 30J       0.121000
      2 C3          -1.2200     1.6900     0.1260 ca         1 30J      -0.076000
      3 C42          4.9530    -0.6480    -0.0880 ca         1 30J       0.647900
      4 C44          6.9570    -0.1780    -1.1390 ca         1 30J       0.438900
      5 C46          7.7030    -0.6270    -0.0400 ca         1 30J      -0.151000
      6 C47          7.0240    -1.1080     1.0890 ca         1 30J       0.007000
      7 C49          5.6220    -1.1150     1.0580 ca         1 30J      -0.242000
      8 C51          9.1310    -0.5870    -0.0840 cg         1 30J       0.340000
      9 C53          2.7720     1.7050     0.2310 c3         1 30J      -0.112100
     10 C11         -3.9480     1.3780    -0.4880 ca         1 30J      -0.076000
     11 C13         -3.4730     2.5990     0.0220 ca         1 30J      -0.089000
     12 C18         -5.8400    -1.3740    -0.3130 ca         1 30J      -0.085300
     13 C19         -7.0430    -0.6430    -0.2530 ca         1 30J      -0.105000
     14 C21         -7.8690    -0.7260     0.8810 ca         1 30J      -0.108000
     15 C23         -7.5000    -1.5440     1.9620 ca         1 30J      -0.107000
     16 C25         -6.3060    -2.2810     1.9060 ca         1 30J      -0.108000
     17 C27         -5.4800    -2.1980     0.7720 ca         1 30J      -0.105000
     18 C30          1.4280     0.1760    -1.3690 c6         1 30J       0.175800
     19 Cl1         -1.5260     4.2760     0.9800 cl         1 30J      -0.187000
     20 C5          -1.6810     0.4620    -0.3980 ca         1 30J      -0.061000
     21 C6          -0.8130    -0.6380    -0.6260 ca         1 30J       0.531900
     22 N7          -1.2910    -1.8150    -1.1010 nb         1 30J      -0.389000
     23 N8          -2.6000    -1.9740    -1.3800 nb         1 30J      -0.310000
     24 C9          -3.4850    -0.9610    -1.1950 ca         1 30J       0.311300
     25 C10         -3.0580     0.2990    -0.6970 ca         1 30J      -0.051000
     26 N29          0.5810    -0.5800    -0.3970 nh         1 30J      -0.740300
     27 C33          2.8440     0.5500    -0.8060 c6         1 30J       0.233500
     28 N35          3.5520    -0.6280    -0.1990 nh         1 30J      -0.769300
     29 C36          2.6950    -1.4510     0.7160 c6         1 30J       0.213800
     30 C39          1.2960    -1.7890     0.1130 c6         1 30J       0.178800
     31 N43          5.6050    -0.1850    -1.1680 nb         1 30J      -0.766000
     32 N52         10.2980    -0.5580    -0.1110 n1         1 30J      -0.464000
     33 H1          -0.1750     1.8270     0.3850 ha         1 30J       0.149000
     34 H2           7.4520     0.2020    -2.0320 h4         1 30J       0.027100
     35 H3           7.5640    -1.4620     1.9670 ha         1 30J       0.126000
     36 H4           5.0700    -1.4690     1.9210 ha         1 30J       0.127000
     37 H5           2.1930     1.4200     1.1170 hc         1 30J       0.046033
     38 H6           3.7730     1.9980     0.5660 hc         1 30J       0.046033
     39 H7           2.2990     2.5930    -0.2050 hc         1 30J       0.046033
     40 H8          -5.0070     1.2880    -0.7140 ha         1 30J       0.132000
     41 H9          -4.1600     3.4260     0.1820 ha         1 30J       0.135000
     42 H10         -4.9950    -2.2290    -2.0930 hc         1 30J       0.069700
     43 H11         -5.3150    -0.5270    -2.2440 hc         1 30J       0.069700
     44 H12         -7.3410    -0.0070    -1.0850 ha         1 30J       0.115500
     45 H13         -8.7950    -0.1560     0.9220 ha         1 30J       0.114000
     46 H14         -8.1400    -1.6080     2.8400 ha         1 30J       0.114000
     47 H15         -6.0210    -2.9180     2.7410 ha         1 30J       0.114000
     48 H16         -4.5590    -2.7780     0.7390 ha         1 30J       0.115500
     49 H17          1.5710    -0.4360    -2.2710 h1         1 30J       0.055200
     50 H18          0.9210     1.0970    -1.6910 h1         1 30J       0.055200
     51 H19          3.4120     0.9350    -1.6660 h1         1 30J       0.094700
     52 H20          3.1920    -2.4040     0.9500 h1         1 30J       0.053700
     53 H21          2.5490    -0.9190     1.6670 h1         1 30J       0.053700
     54 H22          0.6980    -2.2880     0.8900 h1         1 30J       0.064200
     55 H23          1.4370    -2.5120    -0.7040 h1         1 30J       0.064200
     56 C15         -4.9400    -1.2820    -1.5440 c3         1 30J      -0.083400
@<TRIPOS>BOND
     1     1     2 ar  
     2     1    11 ar  
     3     1    19 1   
     4     2    20 ar  
     5     2    33 1   
     6     3     7 ar  
     7     3    28 1   
     8     3    31 ar  
     9     4     5 ar  
    10     4    31 ar  
    11     4    34 1   
    12     5     6 ar  
    13     5     8 1   
    14     6     7 ar  
    15     6    35 1   
    16     7    36 1   
    17     8    32 3   
    18     9    27 1   
    19     9    37 1   
    20     9    38 1   
    21     9    39 1   
    22    10    11 ar  
    23    10    25 ar  
    24    10    40 1   
    25    11    41 1   
    26    12    13 ar  
    27    12    17 ar  
    28    12    56 1   
    29    13    14 ar  
    30    13    44 1   
    31    14    15 ar  
    32    14    45 1   
    33    15    16 ar  
    34    15    46 1   
    35    16    17 ar  
    36    16    47 1   
    37    17    48 1   
    38    18    26 1   
    39    18    27 1   
    40    18    49 1   
    41    18    50 1   
    42    20    21 ar  
    43    20    25 ar  
    44    21    22 ar  
    45    21    26 1   
    46    22    23 ar  
    47    23    24 ar  
    48    24    25 ar  
    49    24    56 1   
    50    26    30 1   
    51    27    28 1   
    52    27    51 1   
    53    28    29 1   
    54    29    30 1   
    55    29    52 1   
    56    29    53 1   
    57    30    54 1   
    58    30    55 1   
    59    42    56 1   
    60    43    56 1   
@<TRIPOS>SUBSTRUCTURE
     1 30J         1 TEMP              0 ****  ****    0 ROOT
