@<TRIPOS>MOLECULE
30K
   68    73     1     0     0
SMALL
No Charge or Current Charge


@<TRIPOS>ATOM
      1 O1          -2.5790     2.6790    -1.0350 o          1 30K      -0.506000
      2 C11         -1.4610     2.4910    -0.5820 c          1 30K       0.564200
      3 N1          -0.4370     3.4020    -0.5710 ns         1 30K      -0.404100
      4 C8           0.7710     2.9110    -0.0910 ca         1 30K       0.031600
      5 C9           2.0060     3.5440     0.0630 ca         1 30K      -0.114000
      6 C7           0.5580     1.5940     0.2680 ca         1 30K      -0.076800
      7 C6           1.5850     0.8430     0.8630 ca         1 30K      -0.111000
      8 C5           2.8530     1.4410     1.0220 ca         1 30K       0.266000
      9 N4           3.8890     0.6910     1.5890 nu         1 30K      -0.923200
     10 C23          5.2820     0.7190     1.1060 c6         1 30K       0.205500
     11 C24          6.1640    -0.1600     2.0170 c6         1 30K      -0.095400
     12 C25          7.6130    -0.2060     1.4830 c6         1 30K       0.169300
     13 N5           7.6690    -0.7040     0.0800 n3         1 30K      -0.720600
     14 C29          9.0680    -0.8670    -0.3870 c3         1 30K       0.169800
     15 C30          9.2190    -1.5990    -1.7360 c3         1 30K      -0.090100
     16 C26          6.8320     0.1390    -0.8240 c6         1 30K       0.169300
     17 C27          5.3630     0.2040    -0.3490 c6         1 30K      -0.095400
     18 C4           3.0590     2.7870     0.6210 ca         1 30K      -0.128000
     19 C10         -0.8470     1.2580     0.0010 cc         1 30K      -0.081400
     20 C2          -1.4110     0.0050    -0.0600 cf         1 30K      -0.012800
     21 C1          -0.7130    -1.2710    -0.3910 ca         1 30K      -0.079800
     22 C12         -1.2380    -2.5160     0.0300 ca         1 30K      -0.087000
     23 C13         -0.5820    -3.7180    -0.2900 ca         1 30K      -0.117500
     24 C14          0.6030    -3.6970    -1.0410 ca         1 30K      -0.099000
     25 C15          1.1290    -2.4710    -1.4750 ca         1 30K      -0.117500
     26 C16          0.4750    -1.2690    -1.1570 ca         1 30K      -0.087000
     27 C3          -2.8740    -0.1460    -0.1210 cd         1 30K       0.467100
     28 N2          -3.6510     0.2670     0.9040 nc         1 30K      -0.557100
     29 C17         -4.9210    -0.0760     0.4800 ca         1 30K       0.107400
     30 C19         -6.1340     0.1230     1.1510 ca         1 30K      -0.089000
     31 C18         -4.8960    -0.6780    -0.7430 ca         1 30K      -0.105200
     32 N3          -3.5980    -0.7480    -1.1630 na         1 30K      -0.297600
     33 C22         -6.0540    -1.1230    -1.3910 ca         1 30K      -0.080000
     34 C21         -7.2880    -0.9330    -0.7360 ca         1 30K      -0.168000
     35 C20         -7.3310    -0.3070     0.5400 ca         1 30K       0.112100
     36 O2          -8.5130    -0.0980     1.2230 os         1 30K      -0.345100
     37 C28         -9.7880    -0.4990     0.6900 c3         1 30K       0.151900
     38 H1          -0.5450     4.3370    -0.9460 hn         1 30K       0.340500
     39 H9           2.1490     4.5820    -0.2280 ha         1 30K       0.120000
     40 H4           4.0300     3.2540     0.7590 ha         1 30K       0.117000
     41 H6           1.4100    -0.1770     1.1910 ha         1 30K       0.125000
     42 HA           3.5840    -0.1890     2.0050 hn         1 30K       0.451000
     43 H23          5.6770     1.7470     1.1400 h1         1 30K       0.059700
     44 H241         6.1620     0.2360     3.0410 hc         1 30K       0.053450
     45 H242         5.7620    -1.1810     2.0680 hc         1 30K       0.053450
     46 H271         4.9110    -0.7940    -0.4230 hc         1 30K       0.053450
     47 H272         4.7920     0.8610    -1.0180 hc         1 30K       0.053450
     48 H251         8.0520     0.8010     1.5470 h1         1 30K       0.032450
     49 H252         8.2060    -0.8580     2.1420 h1         1 30K       0.032450
     50 H291         9.5570     0.1140    -0.4630 h1         1 30K       0.028700
     51 H292         9.6300    -1.4450     0.3590 h1         1 30K       0.028700
     52 H261         7.2390     1.1610    -0.8750 h1         1 30K       0.032450
     53 H262         6.8360    -0.2620    -1.8480 h1         1 30K       0.032450
     54 H301         8.8250    -0.9990    -2.5630 hc         1 30K       0.038033
     55 H302        10.2780    -1.7950    -1.9390 hc         1 30K       0.038033
     56 H303         8.6910    -2.5600    -1.7150 hc         1 30K       0.038033
     57 H12         -2.1450    -2.5630     0.6280 ha         1 30K       0.127000
     58 H16          0.8880    -0.3370    -1.5330 ha         1 30K       0.127000
     59 H13         -0.9930    -4.6670     0.0480 ha         1 30K       0.117500
     60 H14          1.1100    -4.6270    -1.2880 ha         1 30K       0.115000
     61 H15          2.0430    -2.4510    -2.0660 ha         1 30K       0.117500
     62 H3          -3.2220    -1.1430    -2.0150 hn         1 30K       0.359000
     63 H19         -6.1530     0.6020     2.1260 ha         1 30K       0.143000
     64 H22         -6.0050    -1.6010    -2.3670 ha         1 30K       0.115000
     65 H21         -8.1940    -1.2740    -1.2280 ha         1 30K       0.115000
     66 H281        -9.9900     0.0090    -0.2620 h1         1 30K       0.037033
     67 H282        -9.8180    -1.5840     0.5240 h1         1 30K       0.037033
     68 H283       -10.5910    -0.2400     1.3910 h1         1 30K       0.037033
@<TRIPOS>BOND
     1     1     2 2   
     2     2     3 1   
     3     2    19 1   
     4     3     4 1   
     5     3    38 1   
     6     4     5 ar  
     7     4     6 ar  
     8     5    18 ar  
     9     5    39 1   
    10     6     7 ar  
    11     6    19 1   
    12     7     8 ar  
    13     7    41 1   
    14     8     9 1   
    15     8    18 ar  
    16     9    10 1   
    17     9    42 1   
    18    10    11 1   
    19    10    17 1   
    20    10    43 1   
    21    11    12 1   
    22    11    44 1   
    23    11    45 1   
    24    12    13 1   
    25    12    48 1   
    26    12    49 1   
    27    13    14 1   
    28    13    16 1   
    29    14    15 1   
    30    14    50 1   
    31    14    51 1   
    32    15    54 1   
    33    15    55 1   
    34    15    56 1   
    35    16    17 1   
    36    16    52 1   
    37    16    53 1   
    38    17    46 1   
    39    17    47 1   
    40    18    40 1   
    41    19    20 2   
    42    20    21 1   
    43    20    27 1   
    44    21    22 ar  
    45    21    26 ar  
    46    22    23 ar  
    47    22    57 1   
    48    23    24 ar  
    49    23    59 1   
    50    24    25 ar  
    51    24    60 1   
    52    25    26 ar  
    53    25    61 1   
    54    26    58 1   
    55    27    28 2   
    56    27    32 1   
    57    28    29 1   
    58    29    30 ar  
    59    29    31 ar  
    60    30    35 ar  
    61    30    63 1   
    62    31    32 1   
    63    31    33 ar  
    64    32    62 1   
    65    33    34 ar  
    66    33    64 1   
    67    34    35 ar  
    68    34    65 1   
    69    35    36 1   
    70    36    37 1   
    71    37    66 1   
    72    37    67 1   
    73    37    68 1   
@<TRIPOS>SUBSTRUCTURE
     1 30K         1 TEMP              0 ****  ****    0 ROOT
