@<TRIPOS>MOLECULE
30K
   68    73     1     0     0
SMALL
bcc


@<TRIPOS>ATOM
      1 O1          -2.5710     2.5720    -0.7430 o          1 30K      -0.581500
      2 C11         -1.4320     2.3130    -0.4110 c          1 30K       0.706700
      3 N1          -0.4140     3.2040    -0.2880 ns         1 30K      -0.471100
      4 C8           0.7860     2.5810     0.0440 ca         1 30K       0.031600
      5 C9           2.0190     3.1440     0.2850 ca         1 30K      -0.132000
      6 C7           0.5880     1.1990     0.1370 ca         1 30K      -0.076800
      7 C6           1.6390     0.3790     0.5110 ca         1 30K      -0.129000
      8 C5           2.9040     0.9260     0.7690 ca         1 30K       0.127600
      9 N4           3.9270     0.0890     1.1890 nu         1 30K      -0.729600
     10 C23          5.3190     0.3960     0.9140 c6         1 30K       0.205500
     11 C24          6.2140    -0.5880     1.6540 c6         1 30K      -0.095400
     12 C25          7.6800    -0.3110     1.3550 c6         1 30K       0.169300
     13 N5           7.9560    -0.3710    -0.0690 n3         1 30K      -0.720600
     14 C29          9.3780    -0.2290    -0.3300 c3         1 30K       0.169800
     15 C30          9.7790    -0.6140    -1.7450 c3         1 30K      -0.090100
     16 C26          7.1600     0.6100    -0.7850 c6         1 30K       0.169300
     17 C27          5.6710     0.3740    -0.5720 c6         1 30K      -0.095400
     18 C4           3.0750     2.3100     0.6380 ca         1 30K      -0.146000
     19 C10         -0.8290     0.9600    -0.1320 cc         1 30K      -0.081400
     20 C2          -1.5420    -0.1790    -0.1870 cf         1 30K      -0.012800
     21 C1          -0.9480    -1.5300    -0.2150 ca         1 30K      -0.079800
     22 C12         -1.3960    -2.5130     0.6670 ca         1 30K      -0.105000
     23 C13         -0.8520    -3.7870     0.6300 ca         1 30K      -0.135500
     24 C14          0.1250    -4.1010    -0.3070 ca         1 30K      -0.117000
     25 C15          0.5560    -3.1340    -1.2070 ca         1 30K      -0.135500
     26 C16          0.0240    -1.8550    -1.1620 ca         1 30K      -0.105000
     27 C3          -3.0140    -0.1550    -0.2040 cd         1 30K       0.467100
     28 N2          -3.7630     0.2280     0.7960 nc         1 30K      -0.557100
     29 C17         -5.0510    -0.0040     0.3830 ca         1 30K       0.107400
     30 C19         -6.2520     0.2330     1.0470 ca         1 30K      -0.107000
     31 C18         -5.0500    -0.5560    -0.9090 ca         1 30K      -0.105200
     32 N3          -3.7250    -0.6550    -1.2440 na         1 30K      -0.247300
     33 C22         -6.2260    -0.8780    -1.5670 ca         1 30K      -0.098000
     34 C21         -7.4180    -0.6380    -0.9020 ca         1 30K      -0.186000
     35 C20         -7.4340    -0.0890     0.3940 ca         1 30K       0.112100
     36 O2          -8.5750     0.1600     1.0800 os         1 30K      -0.321900
     37 C28         -9.8150    -0.0950     0.4560 c3         1 30K       0.128700
     38 H1          -0.5220     4.1930    -0.4470 hn         1 30K       0.340500
     39 H9           2.1750     4.2130     0.2080 ha         1 30K       0.138000
     40 H4           4.0400     2.7610     0.8260 ha         1 30K       0.135000
     41 H6           1.5000    -0.6900     0.6070 ha         1 30K       0.143000
     42 HA           3.7200    -0.8870     1.0300 hn         1 30K       0.395800
     43 H23          5.5370     1.3940     1.3100 h1         1 30K       0.059700
     44 H241         6.0400    -0.5240     2.7300 hc         1 30K       0.053450
     45 H242         5.9710    -1.6100     1.3420 hc         1 30K       0.053450
     46 H271         5.3940    -0.6000    -0.9890 hc         1 30K       0.053450
     47 H272         5.1030     1.1330    -1.1160 hc         1 30K       0.053450
     48 H251         7.9550     0.6720     1.7800 h1         1 30K       0.032450
     49 H252         8.3000    -1.0540     1.8620 h1         1 30K       0.032450
     50 H291         9.7280     0.7950    -0.1130 h1         1 30K       0.028700
     51 H292         9.9060    -0.8840     0.3670 h1         1 30K       0.028700
     52 H261         7.4160     1.6380    -0.4660 h1         1 30K       0.032450
     53 H262         7.3780     0.5520    -1.8520 h1         1 30K       0.032450
     54 H301         9.3650     0.0570    -2.4980 hc         1 30K       0.038033
     55 H302        10.8640    -0.5810    -1.8460 hc         1 30K       0.038033
     56 H303         9.4500    -1.6280    -1.9770 hc         1 30K       0.038033
     57 H12         -2.1610    -2.2760     1.3970 ha         1 30K       0.145000
     58 H16          0.3590    -1.1060    -1.8680 ha         1 30K       0.145000
     59 H13         -1.1950    -4.5380     1.3300 ha         1 30K       0.135500
     60 H14          0.5430    -5.0980    -0.3400 ha         1 30K       0.133000
     61 H15          1.3050    -3.3770    -1.9490 ha         1 30K       0.135500
     62 H3          -3.3460    -0.9920    -2.1150 hn         1 30K       0.308700
     63 H19         -6.2660     0.6610     2.0420 ha         1 30K       0.161000
     64 H22         -6.2300    -1.3020    -2.5630 ha         1 30K       0.133000
     65 H21         -8.3410    -0.8860    -1.4050 ha         1 30K       0.133000
     66 H281        -9.9460     0.4920    -0.4580 h1         1 30K       0.037033
     67 H282        -9.9480    -1.1530     0.2140 h1         1 30K       0.037033
     68 H283       -10.5840     0.1960     1.1680 h1         1 30K       0.037033
@<TRIPOS>BOND
     1     1     2 2   
     2     2     3 1   
     3     2    19 1   
     4     3     4 1   
     5     3    38 1   
     6     4     5 ar  
     7     4     6 ar  
     8     5    18 ar  
     9     5    39 1   
    10     6     7 ar  
    11     6    19 1   
    12     7     8 ar  
    13     7    41 1   
    14     8     9 1   
    15     8    18 ar  
    16     9    10 1   
    17     9    42 1   
    18    10    11 1   
    19    10    17 1   
    20    10    43 1   
    21    11    12 1   
    22    11    44 1   
    23    11    45 1   
    24    12    13 1   
    25    12    48 1   
    26    12    49 1   
    27    13    14 1   
    28    13    16 1   
    29    14    15 1   
    30    14    50 1   
    31    14    51 1   
    32    15    54 1   
    33    15    55 1   
    34    15    56 1   
    35    16    17 1   
    36    16    52 1   
    37    16    53 1   
    38    17    46 1   
    39    17    47 1   
    40    18    40 1   
    41    19    20 2   
    42    20    21 1   
    43    20    27 1   
    44    21    22 ar  
    45    21    26 ar  
    46    22    23 ar  
    47    22    57 1   
    48    23    24 ar  
    49    23    59 1   
    50    24    25 ar  
    51    24    60 1   
    52    25    26 ar  
    53    25    61 1   
    54    26    58 1   
    55    27    28 2   
    56    27    32 1   
    57    28    29 1   
    58    29    30 ar  
    59    29    31 ar  
    60    30    35 ar  
    61    30    63 1   
    62    31    32 1   
    63    31    33 ar  
    64    32    62 1   
    65    33    34 ar  
    66    33    64 1   
    67    34    35 ar  
    68    34    65 1   
    69    35    36 1   
    70    36    37 1   
    71    37    66 1   
    72    37    67 1   
    73    37    68 1   
@<TRIPOS>SUBSTRUCTURE
     1 30K         1 TEMP              0 ****  ****    0 ROOT
