@<TRIPOS>MOLECULE
30L
   37    38     1     0     0
SMALL
abcg2


@<TRIPOS>ATOM
      1 N1           0.3320     0.4930     1.6300 ns         1 30L      -0.523900
      2 C3           1.4320     1.4290     1.6490 c3         1 30L       0.156300
      3 C4           2.6970     0.8420     1.0740 ca         1 30L      -0.098300
      4 C5           3.3150     1.4310    -0.0160 ca         1 30L      -0.013000
      5 C6           4.4840     0.8760    -0.5190 ca         1 30L      -0.179200
      6 N7           5.1250     1.5030    -1.6660 no         1 30L       0.695200
      7 O8           4.6120     2.4910    -2.1370 o          1 30L      -0.404500
      8 O9           6.1420     1.0070    -2.0910 o          1 30L      -0.404500
      9 C10          5.0510    -0.2640     0.0290 ca         1 30L      -0.051000
     10 C11          4.4220    -0.8520     1.1150 ca         1 30L      -0.132000
     11 C12          3.2570    -0.3050     1.6320 ca         1 30L      -0.060000
     12 C19         -0.2220     0.0850     0.4730 c          1 30L       0.632700
     13 O20          0.1410     0.5060    -0.6120 o          1 30L      -0.551100
     14 C21         -1.2820    -0.9570     0.6250 ca         1 30L      -0.231600
     15 C22         -0.9950    -2.1390     1.2910 ca         1 30L      -0.034000
     16 C24         -1.9230    -3.1680     1.3910 ca         1 30L      -0.240000
     17 C26         -3.1540    -2.9630     0.8080 ca         1 30L       0.223000
     18 F27         -4.0780    -3.9320     0.8830 f          1 30L      -0.192000
     19 C28         -3.4960    -1.7980     0.1470 ca         1 30L      -0.273000
     20 C30         -2.5510    -0.7770     0.0480 ca         1 30L       0.244100
     21 O31         -2.7830     0.3950    -0.5420 os         1 30L      -0.266100
     22 C32         -4.0560     0.6330    -1.1200 c3         1 30L      -0.004400
     23 C33         -4.1220     2.0400    -1.7370 c          1 30L       0.730000
     24 O34         -3.1240     2.7680    -1.6560 o          1 30L      -0.703000
     25 O36         -5.2210     2.2900    -2.2710 o          1 30L      -0.703000
     26 H1          -0.0520     0.1800     2.5050 hn         1 30L       0.315500
     27 H2           1.1660     2.3410     1.1100 h1         1 30L       0.058700
     28 H3           1.5950     1.7100     2.6890 h1         1 30L       0.058700
     29 H4           2.8830     2.3150    -0.4650 ha         1 30L       0.165000
     30 H5           5.9580    -0.6920    -0.3710 ha         1 30L       0.143000
     31 H6           4.8480    -1.7400     1.5600 ha         1 30L       0.118000
     32 H7           2.7790    -0.7780     2.4810 ha         1 30L       0.116000
     33 H8          -0.0160    -2.2760     1.7320 ha         1 30L       0.100000
     34 H9          -1.6890    -4.0920     1.9010 ha         1 30L       0.119000
     35 H10         -4.4880    -1.7050    -0.2740 ha         1 30L       0.146000
     36 H11         -4.2640    -0.1100    -1.8990 h1         1 30L       0.022700
     37 H12         -4.8430     0.5360    -0.3620 h1         1 30L       0.022700
@<TRIPOS>BOND
     1     1     2 1   
     2     1    12 1   
     3     1    26 1   
     4     2     3 1   
     5     2    27 1   
     6     2    28 1   
     7     3     4 ar  
     8     3    11 ar  
     9     4     5 ar  
    10     4    29 1   
    11     5     6 1   
    12     5     9 ar  
    13     6     7 1   
    14     6     8 1   
    15     9    10 ar  
    16     9    30 1   
    17    10    11 ar  
    18    10    31 1   
    19    11    32 1   
    20    12    13 2   
    21    12    14 1   
    22    14    15 ar  
    23    14    20 ar  
    24    15    16 ar  
    25    15    33 1   
    26    16    17 ar  
    27    16    34 1   
    28    17    18 1   
    29    17    19 ar  
    30    19    20 ar  
    31    19    35 1   
    32    20    21 1   
    33    21    22 1   
    34    22    23 1   
    35    22    36 1   
    36    22    37 1   
    37    23    24 1   
    38    23    25 1   
@<TRIPOS>SUBSTRUCTURE
     1 30L         1 TEMP              0 ****  ****    0 ROOT
