@<TRIPOS>MOLECULE
30L
   37    38     1     0     0
SMALL
No Charge or Current Charge


@<TRIPOS>ATOM
      1 N1           0.5100     0.2830     1.7650 ns         1 30L      -0.523900
      2 C3           1.6000     1.2350     1.9770 c3         1 30L       0.156300
      3 C4           2.8880     0.7570     1.3230 ca         1 30L      -0.098300
      4 C5           3.1740     1.1010    -0.0130 ca         1 30L      -0.013000
      5 C6           4.3680     0.6560    -0.6300 ca         1 30L      -0.179200
      6 N7           4.6680     1.0240    -2.0510 no         1 30L       0.695200
      7 O8           3.8530     1.7320    -2.6580 o          1 30L      -0.404500
      8 O9           5.7190     0.6060    -2.5560 o          1 30L      -0.404500
      9 C10          5.2710    -0.1410     0.1120 ca         1 30L      -0.051000
     10 C11          4.9810    -0.4830     1.4430 ca         1 30L      -0.132000
     11 C12          3.7950    -0.0380     2.0480 ca         1 30L      -0.060000
     12 C19         -0.3740     0.3190     0.7090 c          1 30L       0.632700
     13 O20         -0.2960     1.1890    -0.1460 o          1 30L      -0.551100
     14 C21         -1.3690    -0.8180     0.6580 ca         1 30L      -0.231600
     15 C22         -1.0640    -2.0510     1.2870 ca         1 30L      -0.034000
     16 C24         -1.9690    -3.1210     1.2360 ca         1 30L      -0.240000
     17 C26         -3.1830    -2.9770     0.5610 ca         1 30L       0.223000
     18 F27         -4.0500    -4.0100     0.5140 f          1 30L      -0.192000
     19 C28         -3.5060    -1.7700    -0.0630 ca         1 30L      -0.273000
     20 C30         -2.6070    -0.6810    -0.0210 ca         1 30L       0.244100
     21 O31         -2.9390     0.5300    -0.6030 os         1 30L      -0.266100
     22 C32         -4.1880     0.7470    -1.3030 c3         1 30L      -0.004400
     23 C33         -4.3430     2.1940    -1.8520 c          1 30L       0.730000
     24 O34         -3.4660     3.0220    -1.6360 o          1 30L      -0.703000
     25 O36         -5.3580     2.4500    -2.4870 o          1 30L      -0.703000
     26 H1           0.3830    -0.4600     2.4390 hn         1 30L       0.315500
     27 H2           1.3170     2.2190     1.5780 h1         1 30L       0.058700
     28 H3           1.7570     1.3530     3.0580 h1         1 30L       0.058700
     29 H4           2.4610     1.7120    -0.5650 ha         1 30L       0.165000
     30 H5           6.1970    -0.4990    -0.3340 ha         1 30L       0.143000
     31 H6           5.6790    -1.0970     2.0090 ha         1 30L       0.118000
     32 H7           3.5800    -0.3120     3.0790 ha         1 30L       0.116000
     33 H8          -0.1170    -2.2030     1.7990 ha         1 30L       0.100000
     34 H9          -1.7250    -4.0650     1.7150 ha         1 30L       0.119000
     35 H10         -4.4620    -1.6990    -0.5700 ha         1 30L       0.146000
     36 H11         -4.2680     0.0600    -2.1550 h1         1 30L       0.022700
     37 H12         -5.0350     0.5610    -0.6310 h1         1 30L       0.022700
@<TRIPOS>BOND
     1     1     2 1   
     2     1    12 1   
     3     1    26 1   
     4     2     3 1   
     5     2    27 1   
     6     2    28 1   
     7     3     4 ar  
     8     3    11 ar  
     9     4     5 ar  
    10     4    29 1   
    11     5     6 1   
    12     5     9 ar  
    13     6     7 1   
    14     6     8 1   
    15     9    10 ar  
    16     9    30 1   
    17    10    11 ar  
    18    10    31 1   
    19    11    32 1   
    20    12    13 2   
    21    12    14 1   
    22    14    15 ar  
    23    14    20 ar  
    24    15    16 ar  
    25    15    33 1   
    26    16    17 ar  
    27    16    34 1   
    28    17    18 1   
    29    17    19 ar  
    30    19    20 ar  
    31    19    35 1   
    32    20    21 1   
    33    21    22 1   
    34    22    23 1   
    35    22    36 1   
    36    22    37 1   
    37    23    24 1   
    38    23    25 1   
@<TRIPOS>SUBSTRUCTURE
     1 30L         1 TEMP              0 ****  ****    0 ROOT
