@<TRIPOS>MOLECULE
30M
   43    45     1     0     0
SMALL
No Charge or Current Charge


@<TRIPOS>ATOM
      1 C2          -1.7850     1.0390    -0.4870 cc         1 30M      -0.019300
      2 C3          -1.5030     2.5110    -0.5740 c6         1 30M      -0.036200
      3 C4          -2.8400     3.2930    -0.5950 c6         1 30M       0.113000
      4 C6          -4.0550     1.3470     0.5180 c          1 30M       0.604200
      5 O20          6.4600    -0.0080     1.8400 o          1 30M      -0.606100
      6 C19          6.4890     0.0220     0.6180 c          1 30M       0.598100
      7 C22          7.7900     0.0650    -0.1730 c3         1 30M      -0.178100
      8 N18          5.3470     0.0200    -0.1470 ns         1 30M      -0.512900
      9 C17          3.9900    -0.0180     0.3980 c3         1 30M       0.106000
     10 C16          2.9300    -0.0030    -0.7200 c3         1 30M      -0.094400
     11 C15          1.4850    -0.0430    -0.1780 c3         1 30M      -0.098400
     12 N1          -0.9550    -0.0590    -0.7740 na         1 30M      -0.073700
     13 C7          -2.9390     0.4950     0.0410 cd         1 30M      -0.218400
     14 O21         -5.0460     0.9340     1.0990 o          1 30M      -0.562000
     15 N5          -3.9020     2.6900     0.2400 ns         1 30M      -0.509900
     16 C8          -2.8370    -0.9480     0.0880 ca         1 30M      -0.042800
     17 C9          -1.5990    -1.2460    -0.4250 ca         1 30M      -0.057200
     18 C10         -1.1540    -2.5750    -0.5240 ca         1 30M      -0.127000
     19 C11         -2.0210    -3.5990    -0.0850 ca         1 30M      -0.095000
     20 C12         -3.2980    -3.2840     0.4390 ca         1 30M      -0.134000
     21 C13         -3.7220    -1.9410     0.5320 ca         1 30M      -0.051000
     22 H1          -0.9150     2.8240     0.2990 hc         1 30M       0.064200
     23 H2          -0.9080     2.7630    -1.4610 hc         1 30M       0.064200
     24 H3          -2.6720     4.3310    -0.2750 h1         1 30M       0.043200
     25 H4          -3.2150     3.3230    -1.6280 h1         1 30M       0.043200
     26 H5           8.6760     0.0660     0.4710 hc         1 30M       0.060033
     27 H6           7.8040    -0.7710    -0.8810 hc         1 30M       0.060033
     28 H7           7.7730     0.9340    -0.8400 hc         1 30M       0.060033
     29 H8           5.4680     0.0460    -1.1520 hn         1 30M       0.311500
     30 H9           3.8750    -0.9280     1.0020 h1         1 30M       0.054700
     31 H10          3.8460     0.8510     1.0530 h1         1 30M       0.054700
     32 H11          3.0620     0.9000    -1.3290 hc         1 30M       0.042700
     33 H12          3.0910    -0.8650    -1.3800 hc         1 30M       0.042700
     34 H13          1.3510    -0.9440     0.4330 hc         1 30M       0.060700
     35 H14          1.3210     0.8180     0.4820 hc         1 30M       0.060700
     36 H15          0.5460     0.8790    -1.9010 h1         1 30M       0.057700
     37 H16          0.5730    -0.8870    -1.9620 h1         1 30M       0.057700
     38 H17         -4.6480     3.2900     0.5690 hn         1 30M       0.313500
     39 H18         -0.1730    -2.8180    -0.9240 ha         1 30M       0.111000
     40 H19         -1.7050    -4.6380    -0.1500 ha         1 30M       0.110000
     41 H20         -3.9570    -4.0820     0.7740 ha         1 30M       0.114000
     42 H21         -4.7000    -1.6890     0.9350 ha         1 30M       0.138000
     43 C14          0.4230    -0.0280    -1.2960 c3         1 30M       0.074600
@<TRIPOS>BOND
     1     1     2 1   
     2     1    12 1   
     3     1    13 2   
     4     2     3 1   
     5     2    22 1   
     6     2    23 1   
     7     3    15 1   
     8     3    24 1   
     9     3    25 1   
    10     4    13 1   
    11     4    14 2   
    12     4    15 1   
    13     5     6 2   
    14     6     7 1   
    15     6     8 1   
    16     7    26 1   
    17     7    27 1   
    18     7    28 1   
    19     8     9 1   
    20     8    29 1   
    21     9    10 1   
    22     9    30 1   
    23     9    31 1   
    24    10    11 1   
    25    10    32 1   
    26    10    33 1   
    27    11    34 1   
    28    11    35 1   
    29    11    43 1   
    30    12    17 1   
    31    12    43 1   
    32    13    16 1   
    33    15    38 1   
    34    16    17 ar  
    35    16    21 ar  
    36    17    18 ar  
    37    18    19 ar  
    38    18    39 1   
    39    19    20 ar  
    40    19    40 1   
    41    20    21 ar  
    42    20    41 1   
    43    21    42 1   
    44    36    43 1   
    45    37    43 1   
@<TRIPOS>SUBSTRUCTURE
     1 30M         1 TEMP              0 ****  ****    0 ROOT
