@<TRIPOS>MOLECULE
30M
   43    45     1     0     0
SMALL
abcg2


@<TRIPOS>ATOM
      1 C2          -1.7290     0.9430    -0.4190 cc         1 30M      -0.019300
      2 C3          -1.3930     2.3830    -0.5500 c6         1 30M      -0.036200
      3 C4          -2.7020     3.1490    -0.7060 c6         1 30M       0.113000
      4 C6          -3.9540     1.4270     0.5450 c          1 30M       0.604200
      5 O20          6.3500     0.1460     1.7680 o          1 30M      -0.606100
      6 C19          6.3790     0.1280     0.5430 c          1 30M       0.598100
      7 C22          7.6760     0.2050    -0.2230 c3         1 30M      -0.178100
      8 N18          5.2660     0.0460    -0.1990 ns         1 30M      -0.512900
      9 C17          3.9410    -0.0160     0.3790 c3         1 30M       0.106000
     10 C16          2.8800    -0.0070    -0.7080 c3         1 30M      -0.094400
     11 C15          1.4760    -0.0590    -0.1220 c3         1 30M      -0.098400
     12 N1          -0.9310    -0.1140    -0.7060 na         1 30M      -0.073700
     13 C7          -2.9280     0.5030     0.0860 cd         1 30M      -0.218400
     14 O21         -4.9590     1.0720     1.1540 o          1 30M      -0.562000
     15 N5          -3.6840     2.7320     0.2800 ns         1 30M      -0.509900
     16 C8          -2.8710    -0.9260     0.1280 ca         1 30M      -0.042800
     17 C9          -1.6010    -1.2750    -0.3780 ca         1 30M      -0.057200
     18 C10         -1.1860    -2.5980    -0.4930 ca         1 30M      -0.127000
     19 C11         -2.0740    -3.5810    -0.0930 ca         1 30M      -0.095000
     20 C12         -3.3410    -3.2550     0.4100 ca         1 30M      -0.134000
     21 C13         -3.7480    -1.9380     0.5250 ca         1 30M      -0.051000
     22 H1          -0.8540     2.7200     0.3420 hc         1 30M       0.064200
     23 H2          -0.7510     2.5870    -1.4080 hc         1 30M       0.064200
     24 H3          -2.5260     4.2150    -0.5780 h1         1 30M       0.043200
     25 H4          -3.0840     2.9980    -1.7220 h1         1 30M       0.043200
     26 H5           8.3390    -0.5960     0.1020 hc         1 30M       0.060033
     27 H6           7.5510     0.1350    -1.3020 hc         1 30M       0.060033
     28 H7           8.1730     1.1490     0.0050 hc         1 30M       0.060033
     29 H8           5.3490     0.0300    -1.2030 hn         1 30M       0.311500
     30 H9           3.8390    -0.9190     0.9880 h1         1 30M       0.054700
     31 H10          3.7920     0.8340     1.0500 h1         1 30M       0.054700
     32 H11          2.9890     0.8940    -1.3200 hc         1 30M       0.042700
     33 H12          3.0300    -0.8600    -1.3770 hc         1 30M       0.042700
     34 H13          1.3610    -0.9560     0.4940 hc         1 30M       0.060700
     35 H14          1.3180     0.7990     0.5400 hc         1 30M       0.060700
     36 H15          0.5140     0.8490    -1.8280 h1         1 30M       0.057700
     37 H16          0.5670    -0.8930    -1.8980 h1         1 30M       0.057700
     38 H17         -4.4170     3.3900     0.4990 hn         1 30M       0.313500
     39 H18         -0.2080    -2.8600    -0.8750 ha         1 30M       0.111000
     40 H19         -1.7820    -4.6200    -0.1690 ha         1 30M       0.110000
     41 H20         -4.0090    -4.0500     0.7140 ha         1 30M       0.114000
     42 H21         -4.7260    -1.6920     0.9170 ha         1 30M       0.138000
     43 C14          0.4210    -0.0510    -1.2200 c3         1 30M       0.074600
@<TRIPOS>BOND
     1     1     2 1   
     2     1    12 1   
     3     1    13 2   
     4     2     3 1   
     5     2    22 1   
     6     2    23 1   
     7     3    15 1   
     8     3    24 1   
     9     3    25 1   
    10     4    13 1   
    11     4    14 2   
    12     4    15 1   
    13     5     6 2   
    14     6     7 1   
    15     6     8 1   
    16     7    26 1   
    17     7    27 1   
    18     7    28 1   
    19     8     9 1   
    20     8    29 1   
    21     9    10 1   
    22     9    30 1   
    23     9    31 1   
    24    10    11 1   
    25    10    32 1   
    26    10    33 1   
    27    11    34 1   
    28    11    35 1   
    29    11    43 1   
    30    12    17 1   
    31    12    43 1   
    32    13    16 1   
    33    15    38 1   
    34    16    17 ar  
    35    16    21 ar  
    36    17    18 ar  
    37    18    19 ar  
    38    18    39 1   
    39    19    20 ar  
    40    19    40 1   
    41    20    21 ar  
    42    20    41 1   
    43    21    42 1   
    44    36    43 1   
    45    37    43 1   
@<TRIPOS>SUBSTRUCTURE
     1 30M         1 TEMP              0 ****  ****    0 ROOT
