@<TRIPOS>MOLECULE
30O
   46    47     1     0     0
SMALL
bcc


@<TRIPOS>ATOM
      1 C21         -4.2660    -0.8390     0.7300 ca         1 30O      -0.060000
      2 C20         -2.8990    -0.6740     0.5950 ca         1 30O      -0.131500
      3 C22         -5.0830    -0.6110    -0.3670 ca         1 30O      -0.180200
      4 C23         -4.5580    -0.2210    -1.5910 ca         1 30O      -0.060000
      5 C24         -3.1900    -0.0600    -1.7050 ca         1 30O      -0.131500
      6 C19         -2.3450    -0.2830    -0.6190 ca         1 30O      -0.047300
      7 C18         -0.8590    -0.1190    -0.8100 c3         1 30O       0.264100
      8 N6          -0.1470     0.1540     0.4270 n3         1 30O      -0.757500
      9 C1           0.1500     1.5300     0.8130 c3         1 30O       0.150500
     10 C28         -1.0380     2.4590     0.5840 c3         1 30O      -0.090100
     11 C2           1.3730     2.0540     0.0550 c          1 30O       0.641100
     12 N4           2.1910     2.7870     0.8240 ns         1 30O      -0.457400
     13 O5           3.2660     3.4160     0.2820 oh         1 30O      -0.369100
     14 O3           1.5650     1.8280    -1.1240 o          1 30O      -0.566100
     15 S7           0.7240    -1.0470     1.1560 sy         1 30O       1.320200
     16 O8           0.6940    -0.8010     2.5880 o          1 30O      -0.602300
     17 O9           0.2160    -2.3040     0.6330 o          1 30O      -0.602300
     18 C10          2.3940    -0.8360     0.6150 ca         1 30O      -0.317500
     19 C15          3.2960    -0.1650     1.4250 ca         1 30O      -0.015000
     20 C14          4.5750     0.0750     0.9460 ca         1 30O      -0.206000
     21 C13          4.9070    -0.3700    -0.3180 ca         1 30O       0.193900
     22 F16          6.1430    -0.1350    -0.7700 f          1 30O      -0.131900
     23 C12          4.0280    -1.0590    -1.1470 ca         1 30O      -0.121300
     24 C11          2.7530    -1.2850    -0.6510 ca         1 30O       0.005000
     25 C17          4.4530    -1.5380    -2.5010 c3         1 30O      -0.044800
     26 N1          -6.5190    -0.7780    -0.2300 no         1 30O       0.314200
     27 O1          -7.2110    -0.5730    -1.2000 o          1 30O      -0.209000
     28 O4          -6.9540    -1.1160     0.8460 o          1 30O      -0.209000
     29 H1          -4.6770    -1.1410     1.6820 ha         1 30O       0.171000
     30 H2          -2.2670    -0.8350     1.4580 ha         1 30O       0.147000
     31 H3          -5.1950    -0.0350    -2.4420 ha         1 30O       0.171000
     32 H4          -2.7750     0.2550    -2.6540 ha         1 30O       0.147000
     33 H5          -0.4710    -1.0250    -1.2790 h1         1 30O       0.081200
     34 H6          -0.6600     0.6750    -1.5280 h1         1 30O       0.081200
     35 H7           0.3450     1.5360     1.8870 h1         1 30O       0.082700
     36 H8          -1.9100     2.1040     1.1310 hc         1 30O       0.056367
     37 H9          -0.7900     3.4510     0.9580 hc         1 30O       0.056367
     38 H10         -1.2980     2.5580    -0.4690 hc         1 30O       0.056367
     39 H11          2.0110     2.9920     1.7960 hn         1 30O       0.344500
     40 H12          4.0080     2.8000     0.3660 ho         1 30O       0.403000
     41 H13          3.0250     0.1720     2.4150 ha         1 30O       0.156000
     42 H14          5.3080     0.5880     1.5550 ha         1 30O       0.154000
     43 H15          2.0460    -1.8230    -1.2690 ha         1 30O       0.152000
     44 H16          5.2530    -2.2760    -2.4270 hc         1 30O       0.054033
     45 H17          3.6190    -2.0000    -3.0240 hc         1 30O       0.054033
     46 H18          4.8230    -0.7180    -3.1180 hc         1 30O       0.054033
@<TRIPOS>BOND
     1     1     2 ar  
     2     1     3 ar  
     3     1    29 1   
     4     2     6 ar  
     5     2    30 1   
     6     3     4 ar  
     7     3    26 1   
     8     4     5 ar  
     9     4    31 1   
    10     5     6 ar  
    11     5    32 1   
    12     6     7 1   
    13     7     8 1   
    14     7    33 1   
    15     7    34 1   
    16     8     9 1   
    17     8    15 1   
    18     9    10 1   
    19     9    11 1   
    20     9    35 1   
    21    10    36 1   
    22    10    37 1   
    23    10    38 1   
    24    11    12 1   
    25    11    14 2   
    26    12    13 1   
    27    12    39 1   
    28    13    40 1   
    29    15    16 2   
    30    15    17 2   
    31    15    18 1   
    32    18    19 ar  
    33    18    24 ar  
    34    19    20 ar  
    35    19    41 1   
    36    20    21 ar  
    37    20    42 1   
    38    21    22 1   
    39    21    23 ar  
    40    23    24 ar  
    41    23    25 1   
    42    24    43 1   
    43    25    44 1   
    44    25    45 1   
    45    25    46 1   
    46    26    27 1   
    47    26    28 1   
@<TRIPOS>SUBSTRUCTURE
     1 30O         1 TEMP              0 ****  ****    0 ROOT
