@<TRIPOS>MOLECULE
30O
   46    47     1     0     0
SMALL
No Charge or Current Charge


@<TRIPOS>ATOM
      1 C21         -3.8890    -0.9710    -0.4230 ca         1 30O      -0.042000
      2 C20         -2.5350    -1.0080    -0.0480 ca         1 30O      -0.113500
      3 C22         -4.3420    -0.0250    -1.3720 ca         1 30O      -0.180200
      4 C23         -3.4110     0.8790    -1.9360 ca         1 30O      -0.042000
      5 C24         -2.0590     0.8360    -1.5550 ca         1 30O      -0.113500
      6 C19         -1.6130    -0.1010    -0.6040 ca         1 30O      -0.047300
      7 C18         -0.1450    -0.1540    -0.1930 c3         1 30O       0.264100
      8 N6           0.1200     0.0290     1.2640 n3         1 30O      -0.757500
      9 C1          -0.2530     1.3680     1.8620 c3         1 30O       0.150500
     10 C28         -1.7780     1.6160     1.9520 c3         1 30O      -0.090100
     11 C2           0.4680     2.6290     1.2670 c          1 30O       0.574100
     12 N4           1.4240     3.2230     2.0900 ns         1 30O      -0.390400
     13 O5           1.9540     4.5380     1.7940 oh         1 30O      -0.408100
     14 O3           0.2210     3.0730     0.1500 o          1 30O      -0.566100
     15 S7           1.6100    -0.6360     1.8020 sy         1 30O       1.178600
     16 O8           2.2290     0.3670     2.6740 o          1 30O      -0.531500
     17 O9           1.3090    -1.9880     2.2830 o          1 30O      -0.531500
     18 C10          2.6160    -0.7090     0.3070 ca         1 30O      -0.317500
     19 C15          3.2310     0.4610    -0.1830 ca         1 30O       0.003000
     20 C14          4.0080     0.4020    -1.3500 ca         1 30O      -0.188000
     21 C13          4.1770    -0.8170    -2.0230 ca         1 30O       0.229000
     22 F16          4.9300    -0.8490    -3.1470 f          1 30O      -0.167000
     23 C12          3.5740    -1.9950    -1.5400 ca         1 30O      -0.121300
     24 C11          2.7940    -1.9350    -0.3680 ca         1 30O       0.023000
     25 C17          3.7600    -3.3190    -2.2730 c3         1 30O      -0.044800
     26 N1          -5.7850     0.0190    -1.7740 no         1 30O       0.694200
     27 O1          -6.1360     0.8650    -2.6080 o          1 30O      -0.399000
     28 O4          -6.5630    -0.7920    -1.2540 o          1 30O      -0.399000
     29 H1          -4.5790    -1.6820     0.0300 ha         1 30O       0.153000
     30 H2          -2.2000    -1.7380     0.6860 ha         1 30O       0.129000
     31 H3          -3.7260     1.6190    -2.6700 ha         1 30O       0.153000
     32 H4          -1.3580     1.5420    -1.9970 ha         1 30O       0.129000
     33 H5           0.1980    -1.1470    -0.5120 h1         1 30O       0.081200
     34 H6           0.4260     0.5740    -0.7850 h1         1 30O       0.081200
     35 H7           0.0370     1.3450     2.9210 h1         1 30O       0.082700
     36 H8          -2.2960     0.7200     2.3120 hc         1 30O       0.056367
     37 H9          -1.9850     2.4300     2.6570 hc         1 30O       0.056367
     38 H10         -2.2040     1.9080     0.9870 hc         1 30O       0.056367
     39 H11          1.5460     2.8900     3.0470 hn         1 30O       0.344500
     40 H12          2.9310     4.4150     1.8510 ho         1 30O       0.442000
     41 H13          3.1080     1.4130     0.3310 ha         1 30O       0.138000
     42 H14          4.4820     1.3010    -1.7350 ha         1 30O       0.136000
     43 H15          2.3250    -2.8420     0.0110 ha         1 30O       0.134000
     44 H16          4.8210    -3.5910    -2.3270 hc         1 30O       0.054033
     45 H17          3.2340    -4.1410    -1.7750 hc         1 30O       0.054033
     46 H18          3.3780    -3.2560    -3.2990 hc         1 30O       0.054033
@<TRIPOS>BOND
     1     1     2 ar  
     2     1     3 ar  
     3     1    29 1   
     4     2     6 ar  
     5     2    30 1   
     6     3     4 ar  
     7     3    26 1   
     8     4     5 ar  
     9     4    31 1   
    10     5     6 ar  
    11     5    32 1   
    12     6     7 1   
    13     7     8 1   
    14     7    33 1   
    15     7    34 1   
    16     8     9 1   
    17     8    15 1   
    18     9    10 1   
    19     9    11 1   
    20     9    35 1   
    21    10    36 1   
    22    10    37 1   
    23    10    38 1   
    24    11    12 1   
    25    11    14 2   
    26    12    13 1   
    27    12    39 1   
    28    13    40 1   
    29    15    16 2   
    30    15    17 2   
    31    15    18 1   
    32    18    19 ar  
    33    18    24 ar  
    34    19    20 ar  
    35    19    41 1   
    36    20    21 ar  
    37    20    42 1   
    38    21    22 1   
    39    21    23 ar  
    40    23    24 ar  
    41    23    25 1   
    42    24    43 1   
    43    25    44 1   
    44    25    45 1   
    45    25    46 1   
    46    26    27 1   
    47    26    28 1   
@<TRIPOS>SUBSTRUCTURE
     1 30O         1 TEMP              0 ****  ****    0 ROOT
