@<TRIPOS>MOLECULE
30P
   46    47     1     0     0
SMALL
No Charge or Current Charge


@<TRIPOS>ATOM
      1 C21          5.4860     0.1510    -0.0860 ca         1 30P       0.290000
      2 C20          4.2930     0.5780    -0.6880 ca         1 30P      -0.179000
      3 C22          5.5880     0.1070     1.3120 ca         1 30P      -0.175000
      4 C23          4.4980     0.4930     2.1110 ca         1 30P      -0.069000
      5 C24          3.3040     0.9200     1.5060 ca         1 30P      -0.132000
      6 C19          3.1890     0.9590     0.1020 ca         1 30P      -0.055300
      7 C18          1.8900     1.4300    -0.5510 c3         1 30P       0.273100
      8 N6           0.6580     0.7610    -0.0470 n3         1 30P      -0.758500
      9 C1           0.4310    -0.6590    -0.5180 c3         1 30P       0.155500
     10 C28          1.5500    -1.6430    -0.1040 c3         1 30P      -0.089100
     11 C2           0.0800    -0.8640    -2.0350 c          1 30P       0.571100
     12 N4          -1.1850    -1.3960    -2.2870 ns         1 30P      -0.386400
     13 O5          -1.7380    -1.4040    -3.6260 oh         1 30P      -0.420100
     14 O3           0.8600    -0.5980    -2.9450 o          1 30P      -0.561100
     15 S7          -0.6960     1.7960    -0.1500 sy         1 30P       1.183600
     16 O8          -0.4650     2.8420     0.8520 o          1 30P      -0.536000
     17 O9          -0.9060     2.1040    -1.5670 o          1 30P      -0.536000
     18 C10         -2.0480     0.7780     0.4630 ca         1 30P      -0.317500
     19 C15         -2.0210     0.3200     1.7950 ca         1 30P       0.000000
     20 C14         -3.0700    -0.4790     2.2760 ca         1 30P      -0.165000
     21 C13         -4.1420    -0.8140     1.4360 ca         1 30P       0.229000
     22 F16         -5.1420    -1.5860     1.9200 f          1 30P      -0.171000
     23 C12         -4.1830    -0.3550     0.1040 ca         1 30P      -0.125300
     24 C11         -3.1310     0.4500    -0.3780 ca         1 30P       0.020000
     25 C17         -5.3520    -0.7170    -0.8060 c3         1 30P      -0.042800
     26 N1           6.5500    -0.2190    -0.8610 nv         1 30P      -1.072000
     27 H1           4.2190     0.6090    -1.7720 ha         1 30P       0.109000
     28 H2           6.5090    -0.2230     1.7830 ha         1 30P       0.112000
     29 H3           4.5780     0.4600     3.1950 ha         1 30P       0.112000
     30 H4           2.4610     1.2160     2.1280 ha         1 30P       0.116000
     31 H5           1.8440     2.5110    -0.3560 h1         1 30P       0.072200
     32 H6           1.9670     1.3310    -1.6420 h1         1 30P       0.072200
     33 H7          -0.4390    -1.0490     0.0240 h1         1 30P       0.077700
     34 H8           1.8110    -1.5120     0.9520 hc         1 30P       0.055367
     35 H9           1.2130    -2.6770    -0.2410 hc         1 30P       0.055367
     36 H10          2.4500    -1.5070    -0.7140 hc         1 30P       0.055367
     37 H11         -1.8560    -1.4900    -1.5260 hn         1 30P       0.337500
     38 H12         -2.0200    -2.3390    -3.7580 ho         1 30P       0.447000
     39 H13         -1.1890     0.5740     2.4500 ha         1 30P       0.134000
     40 H14         -3.0540    -0.8400     3.3010 ha         1 30P       0.137000
     41 H15         -3.1610     0.8150    -1.4040 ha         1 30P       0.133000
     42 H16         -6.2950    -0.3260    -0.4070 hc         1 30P       0.051033
     43 H17         -5.2270    -0.3100    -1.8170 hc         1 30P       0.051033
     44 H18         -5.4530    -1.8050    -0.9010 hc         1 30P       0.051033
     45 H19          7.4560    -0.3920    -0.4290 hn         1 30P       0.445500
     46 H20          6.5280    -0.0560    -1.8660 hn         1 30P       0.445500
@<TRIPOS>BOND
     1     1     2 ar  
     2     1     3 ar  
     3     1    26 1   
     4     2     6 ar  
     5     2    27 1   
     6     3     4 ar  
     7     3    28 1   
     8     4     5 ar  
     9     4    29 1   
    10     5     6 ar  
    11     5    30 1   
    12     6     7 1   
    13     7     8 1   
    14     7    31 1   
    15     7    32 1   
    16     8     9 1   
    17     8    15 1   
    18     9    10 1   
    19     9    11 1   
    20     9    33 1   
    21    10    34 1   
    22    10    35 1   
    23    10    36 1   
    24    11    12 1   
    25    11    14 2   
    26    12    13 1   
    27    12    37 1   
    28    13    38 1   
    29    15    16 2   
    30    15    17 2   
    31    15    18 1   
    32    18    19 ar  
    33    18    24 ar  
    34    19    20 ar  
    35    19    39 1   
    36    20    21 ar  
    37    20    40 1   
    38    21    22 1   
    39    21    23 ar  
    40    23    24 ar  
    41    23    25 1   
    42    24    41 1   
    43    25    42 1   
    44    25    43 1   
    45    25    44 1   
    46    26    45 1   
    47    26    46 1   
@<TRIPOS>SUBSTRUCTURE
     1 30P         1 TEMP              0 ****  ****    0 ROOT
