@<TRIPOS>MOLECULE
30P
   46    47     1     0     0
SMALL
bcc


@<TRIPOS>ATOM
      1 C21          5.1890     0.6630    -1.2690 ca         1 30P       0.151600
      2 C20          3.8400     0.3280    -1.4150 ca         1 30P      -0.197000
      3 C22          5.5980     1.2610    -0.0700 ca         1 30P      -0.193000
      4 C23          4.6760     1.5040     0.9330 ca         1 30P      -0.087000
      5 C24          3.3350     1.1710     0.7780 ca         1 30P      -0.150000
      6 C19          2.9170     0.5780    -0.4070 ca         1 30P      -0.055300
      7 C18          1.4740     0.2160    -0.6700 c3         1 30P       0.273100
      8 N6           0.6790     0.0490     0.5380 n3         1 30P      -0.758500
      9 C1           0.4550    -1.2770     1.0970 c3         1 30P       0.155500
     10 C28          1.7360    -2.1050     1.1320 c3         1 30P      -0.089100
     11 C2          -0.6280    -2.0320     0.3160 c          1 30P       0.638100
     12 N4          -1.3770    -2.8230     1.1000 ns         1 30P      -0.453400
     13 O5          -2.4270    -3.5080     0.5730 oh         1 30P      -0.381100
     14 O3          -0.7400    -1.9630    -0.8920 o          1 30P      -0.561100
     15 S7          -0.3070     1.2650     1.0520 sy         1 30P       1.325200
     16 O8          -0.3320     1.2350     2.5060 o          1 30P      -0.606800
     17 O9           0.1210     2.4740     0.3690 o          1 30P      -0.606800
     18 C10         -1.9300     0.8430     0.4910 ca         1 30P      -0.317500
     19 C15         -2.8110     0.2050     1.3510 ca         1 30P      -0.018000
     20 C14         -4.0500    -0.1850     0.8700 ca         1 30P      -0.183000
     21 C13         -4.3670     0.0810    -0.4450 ca         1 30P       0.193900
     22 F16         -5.5690    -0.2950    -0.9000 f          1 30P      -0.135900
     23 C12         -3.5100     0.7280    -1.3290 ca         1 30P      -0.125300
     24 C11         -2.2720     1.1060    -0.8310 ca         1 30P       0.002000
     25 C17         -3.9150     1.0020    -2.7440 c3         1 30P      -0.042800
     26 N1           6.1030     0.3560    -2.2560 nv         1 30P      -0.823200
     27 H1           3.5090    -0.1410    -2.3360 ha         1 30P       0.127000
     28 H2           6.6390     1.5260     0.0720 ha         1 30P       0.130000
     29 H3           5.0100     1.9640     1.8540 ha         1 30P       0.130000
     30 H4           2.6370     1.3570     1.5820 ha         1 30P       0.134000
     31 H5           1.0240     0.9780    -1.3080 h1         1 30P       0.072200
     32 H6           1.4210    -0.7020    -1.2520 h1         1 30P       0.072200
     33 H7           0.1400    -1.1500     2.1350 h1         1 30P       0.077700
     34 H8           2.5080    -1.5820     1.6920 hc         1 30P       0.055367
     35 H9           1.5380    -3.0540     1.6280 hc         1 30P       0.055367
     36 H10          2.1170    -2.3240     0.1350 hc         1 30P       0.055367
     37 H11         -1.3880    -2.7390     2.1070 hn         1 30P       0.337500
     38 H12         -2.1120    -4.4090     0.4240 ho         1 30P       0.408000
     39 H13         -2.5520     0.0110     2.3820 ha         1 30P       0.152000
     40 H14         -4.7610    -0.6870     1.5130 ha         1 30P       0.155000
     41 H15         -1.5830     1.6190    -1.4890 ha         1 30P       0.151000
     42 H16         -4.7810     1.6650    -2.7900 hc         1 30P       0.051033
     43 H17         -3.1020     1.4770    -3.2900 hc         1 30P       0.051033
     44 H18         -4.1800     0.0840    -3.2690 hc         1 30P       0.051033
     45 H19          6.9450     0.9090    -2.2560 hn         1 30P       0.390300
     46 H20          5.7240     0.2620    -3.1850 hn         1 30P       0.390300
@<TRIPOS>BOND
     1     1     2 ar  
     2     1     3 ar  
     3     1    26 1   
     4     2     6 ar  
     5     2    27 1   
     6     3     4 ar  
     7     3    28 1   
     8     4     5 ar  
     9     4    29 1   
    10     5     6 ar  
    11     5    30 1   
    12     6     7 1   
    13     7     8 1   
    14     7    31 1   
    15     7    32 1   
    16     8     9 1   
    17     8    15 1   
    18     9    10 1   
    19     9    11 1   
    20     9    33 1   
    21    10    34 1   
    22    10    35 1   
    23    10    36 1   
    24    11    12 1   
    25    11    14 2   
    26    12    13 1   
    27    12    37 1   
    28    13    38 1   
    29    15    16 2   
    30    15    17 2   
    31    15    18 1   
    32    18    19 ar  
    33    18    24 ar  
    34    19    20 ar  
    35    19    39 1   
    36    20    21 ar  
    37    20    40 1   
    38    21    22 1   
    39    21    23 ar  
    40    23    24 ar  
    41    23    25 1   
    42    24    41 1   
    43    25    42 1   
    44    25    43 1   
    45    25    44 1   
    46    26    45 1   
    47    26    46 1   
@<TRIPOS>SUBSTRUCTURE
     1 30P         1 TEMP              0 ****  ****    0 ROOT
