@<TRIPOS>MOLECULE
30Q
   71    74     1     0     0
SMALL
No Charge or Current Charge


@<TRIPOS>ATOM
      1 CAE          1.0800     0.7780    -2.2520 c3         1 30Q      -0.081100
      2 CCQ          1.0330     0.4610    -0.7160 c5         1 30Q      -0.038000
      3 CBH          1.7040     1.6390     0.0550 c6         1 30Q      -0.062400
      4 CBG          3.2430     1.6950    -0.1730 c6         1 30Q      -0.071400
      5 CCJ          3.9620     0.3470     0.1820 c6         1 30Q      -0.038700
      6 CCP          5.5290     0.3800    -0.0270 c6         1 30Q       0.005400
      7 CAD          5.9480     0.6990    -1.4980 c3         1 30Q      -0.076100
      8 CAU          6.1690     1.4830     0.8280 c2         1 30Q      -0.152200
      9 CAT          7.1420     1.2590     1.7400 ce         1 30Q      -0.293200
     10 CBV          7.6860    -0.0860     2.0310 c          1 30Q       0.566500
     11 OAG          8.5710    -0.2720     2.8540 o          1 30Q      -0.528100
     12 CAV          7.0720    -1.1910     1.2630 ce         1 30Q      -0.302200
     13 CBZ          6.0990    -1.0080     0.3400 c2         1 30Q      -0.039400
     14 CBC          5.4570    -2.1970    -0.3650 c6         1 30Q      -0.049200
     15 CBD          3.9330    -2.2070    -0.1360 c6         1 30Q      -0.069400
     16 CCH          3.2870    -0.8610    -0.5650 c6         1 30Q      -0.047700
     17 CCK          1.7560    -0.8550    -0.2820 c5         1 30Q      -0.064700
     18 CBF          0.8890    -1.9530    -0.9520 c5         1 30Q      -0.069400
     19 CBE         -0.5640    -1.4020    -0.7930 c5         1 30Q      -0.084400
     20 CCI         -0.4120     0.0580    -0.2260 c5         1 30Q      -0.052700
     21 CCD         -1.6250     0.9740    -0.5990 c3         1 30Q      -0.135700
     22 CAA         -1.5670     2.4220    -0.0550 c3         1 30Q      -0.082100
     23 CBY         -2.9680     0.3070    -0.1670 c          1 30Q       0.606700
     24 OAJ         -3.2290     0.0870     1.0090 o          1 30Q      -0.516100
     25 SBU         -4.1380    -0.1450    -1.5230 ss         1 30Q      -0.366600
     26 CBA         -5.5620    -0.8330    -0.5540 c3         1 30Q       0.034600
     27 CAY         -6.3740     0.2890     0.1300 c3         1 30Q       0.111000
     28 NBN         -7.5020    -0.2310     0.9120 ns         1 30Q      -0.513900
     29 CBW         -8.6620    -0.7410     0.3740 c          1 30Q       0.595100
     30 OAH         -8.8480    -0.8090    -0.8320 o          1 30Q      -0.598100
     31 CBB         -9.6840    -1.2500     1.3970 c3         1 30Q      -0.157400
     32 CAZ        -10.8950    -0.3000     1.5140 c3         1 30Q      -0.076100
     33 H1           2.1030     0.8300    -2.6390 hc         1 30Q       0.034700
     34 H2           0.5530     0.0320    -2.8580 hc         1 30Q       0.034700
     35 H3           0.6090     1.7440    -2.4660 hc         1 30Q       0.034700
     36 H4           1.2760     2.6020    -0.2450 hc         1 30Q       0.043700
     37 H5           1.5060     1.5380     1.1310 hc         1 30Q       0.043700
     38 H6           3.4520     1.9790    -1.2110 hc         1 30Q       0.041200
     39 H7           3.6370     2.5100     0.4460 hc         1 30Q       0.041200
     40 H8           3.8020     0.1860     1.2580 hc         1 30Q       0.054700
     41 H9           5.6710     1.7190    -1.7890 hc         1 30Q       0.041700
     42 H10          7.0360     0.6200    -1.6170 hc         1 30Q       0.041700
     43 H11          5.4950     0.0200    -2.2270 hc         1 30Q       0.041700
     44 H12          5.8340     2.5050     0.6430 ha         1 30Q       0.178000
     45 H13          7.5820     2.0770     2.3070 ha         1 30Q       0.199000
     46 H14          7.4450    -2.1830     1.5050 ha         1 30Q       0.198000
     47 H15          5.6780    -2.1650    -1.4400 hc         1 30Q       0.054700
     48 H16          5.8850    -3.1410     0.0010 hc         1 30Q       0.054700
     49 H17          3.4910    -3.0400    -0.6990 hc         1 30Q       0.047200
     50 H18          3.7260    -2.4010     0.9250 hc         1 30Q       0.047200
     51 H19          3.4340    -0.7500    -1.6460 hc         1 30Q       0.052700
     52 H20          1.6900    -0.9780     0.8080 hc         1 30Q       0.048700
     53 H21          1.1530    -2.0920    -2.0070 hc         1 30Q       0.044700
     54 H22          1.0110    -2.9260    -0.4640 hc         1 30Q       0.044700
     55 H23         -1.0830    -1.4080    -1.7580 hc         1 30Q       0.048200
     56 H24         -1.1580    -2.0280    -0.1180 hc         1 30Q       0.048200
     57 H25         -0.4180     0.0100     0.8710 hc         1 30Q       0.062700
     58 H26         -1.6750     1.0510    -1.6910 hc         1 30Q       0.074700
     59 H27         -0.8350     3.0220    -0.6060 hc         1 30Q       0.044700
     60 H28         -2.5390     2.9170    -0.1770 hc         1 30Q       0.044700
     61 H29         -1.3090     2.4340     1.0110 hc         1 30Q       0.044700
     62 H30         -6.2170    -1.3810    -1.2430 h1         1 30Q       0.086700
     63 H31         -5.1900    -1.5410     0.1970 h1         1 30Q       0.086700
     64 H32         -5.7230     0.8630     0.8010 h1         1 30Q       0.065700
     65 H33         -6.7580     0.9780    -0.6350 h1         1 30Q       0.065700
     66 H34         -7.4360    -0.2180     1.9240 hn         1 30Q       0.313500
     67 H35        -10.0490    -2.2320     1.0730 hc         1 30Q       0.054200
     68 H36         -9.2190    -1.3360     2.3860 hc         1 30Q       0.054200
     69 H37        -10.5750     0.6990     1.8350 hc         1 30Q       0.043033
     70 H38        -11.4100    -0.2040     0.5500 hc         1 30Q       0.043033
     71 H39        -11.6130    -0.6820     2.2500 hc         1 30Q       0.043033
@<TRIPOS>BOND
     1     1     2 1   
     2     1    33 1   
     3     1    34 1   
     4     1    35 1   
     5     2     3 1   
     6     2    17 1   
     7     2    20 1   
     8     3     4 1   
     9     3    36 1   
    10     3    37 1   
    11     4     5 1   
    12     4    38 1   
    13     4    39 1   
    14     5     6 1   
    15     5    16 1   
    16     5    40 1   
    17     6     7 1   
    18     6     8 1   
    19     6    13 1   
    20     7    41 1   
    21     7    42 1   
    22     7    43 1   
    23     8     9 2   
    24     8    44 1   
    25     9    10 1   
    26     9    45 1   
    27    10    11 2   
    28    10    12 1   
    29    12    13 2   
    30    12    46 1   
    31    13    14 1   
    32    14    15 1   
    33    14    47 1   
    34    14    48 1   
    35    15    16 1   
    36    15    49 1   
    37    15    50 1   
    38    16    17 1   
    39    16    51 1   
    40    17    18 1   
    41    17    52 1   
    42    18    19 1   
    43    18    53 1   
    44    18    54 1   
    45    19    20 1   
    46    19    55 1   
    47    19    56 1   
    48    20    21 1   
    49    20    57 1   
    50    21    22 1   
    51    21    23 1   
    52    21    58 1   
    53    22    59 1   
    54    22    60 1   
    55    22    61 1   
    56    23    24 2   
    57    23    25 1   
    58    25    26 1   
    59    26    27 1   
    60    26    62 1   
    61    26    63 1   
    62    27    28 1   
    63    27    64 1   
    64    27    65 1   
    65    28    29 1   
    66    28    66 1   
    67    29    30 2   
    68    29    31 1   
    69    31    32 1   
    70    31    67 1   
    71    31    68 1   
    72    32    69 1   
    73    32    70 1   
    74    32    71 1   
@<TRIPOS>SUBSTRUCTURE
     1 30Q         1 TEMP              0 ****  ****    0 ROOT
