@<TRIPOS>MOLECULE
30Q
   71    74     1     0     0
SMALL
abcg2


@<TRIPOS>ATOM
      1 CAE          1.0550     0.7560    -2.0660 c3         1 30Q      -0.081100
      2 CCQ          1.0290     0.4810    -0.5590 c5         1 30Q      -0.038000
      3 CBH          1.7320     1.5990     0.2070 c6         1 30Q      -0.062400
      4 CBG          3.2360     1.6270    -0.0830 c6         1 30Q      -0.071400
      5 CCJ          3.9240     0.2810     0.1720 c6         1 30Q      -0.038700
      6 CCP          5.4640     0.3020    -0.1210 c6         1 30Q       0.005400
      7 CAD          5.7720     0.6580    -1.5910 c3         1 30Q      -0.076100
      8 CAU          6.1190     1.3550     0.7150 c2         1 30Q      -0.152200
      9 CAT          7.0680     1.1260     1.6240 ce         1 30Q      -0.293200
     10 CBV          7.5590    -0.2290     1.8870 c          1 30Q       0.566500
     11 OAG          8.4280    -0.4510     2.7200 o          1 30Q      -0.528100
     12 CAV          6.9490    -1.2960     1.1000 ce         1 30Q      -0.302200
     13 CBZ          5.9970    -1.0730     0.1820 c2         1 30Q      -0.039400
     14 CBC          5.3480    -2.2030    -0.5470 c6         1 30Q      -0.049200
     15 CBD          3.8500    -2.2120    -0.2430 c6         1 30Q      -0.069400
     16 CCH          3.2110    -0.8670    -0.5660 c6         1 30Q      -0.047700
     17 CCK          1.7380    -0.8360    -0.1900 c5         1 30Q      -0.064700
     18 CBF          0.8260    -1.9240    -0.7450 c5         1 30Q      -0.069400
     19 CBE         -0.5890    -1.3340    -0.5760 c5         1 30Q      -0.084400
     20 CCI         -0.4060     0.1330    -0.1090 c5         1 30Q      -0.052700
     21 CCD         -1.5540     1.0280    -0.5950 c3         1 30Q      -0.135700
     22 CAA         -1.4430     2.4990    -0.1880 c3         1 30Q      -0.082100
     23 CBY         -2.8500     0.4840    -0.0240 c          1 30Q       0.606700
     24 OAJ         -3.0750     0.3860     1.1550 o          1 30Q      -0.516100
     25 SBU         -4.0140     0.0180    -1.2710 ss         1 30Q      -0.366600
     26 CBA         -5.4120    -0.5660    -0.2810 c3         1 30Q       0.034600
     27 CAY         -6.2880     0.5790     0.2190 c3         1 30Q       0.111000
     28 NBN         -7.3970     0.1020     1.0080 ns         1 30Q      -0.513900
     29 CBW         -8.5270    -0.3980     0.4690 c          1 30Q       0.595100
     30 OAH         -8.7280    -0.4090    -0.7370 o          1 30Q      -0.598100
     31 CBB         -9.5170    -0.9520     1.4730 c3         1 30Q      -0.157400
     32 CAZ        -10.9100    -1.1550     0.9050 c3         1 30Q      -0.076100
     33 H1           2.0680     0.8150    -2.4610 hc         1 30Q       0.034700
     34 H2           0.5310    -0.0110    -2.6380 hc         1 30Q       0.034700
     35 H3           0.5760     1.7110    -2.2910 hc         1 30Q       0.034700
     36 H4           1.3210     2.5810    -0.0350 hc         1 30Q       0.043700
     37 H5           1.5720     1.4510     1.2810 hc         1 30Q       0.043700
     38 H6           3.4000     1.9440    -1.1170 hc         1 30Q       0.041200
     39 H7           3.6840     2.4030     0.5390 hc         1 30Q       0.041200
     40 H8           3.8300     0.0680     1.2460 hc         1 30Q       0.054700
     41 H9           5.4960     1.6900    -1.8040 hc         1 30Q       0.041700
     42 H10          6.8400     0.5540    -1.7900 hc         1 30Q       0.041700
     43 H11          5.2370     0.0220    -2.2930 hc         1 30Q       0.041700
     44 H12          5.8090     2.3770     0.5320 ha         1 30Q       0.178000
     45 H13          7.5100     1.9400     2.1860 ha         1 30Q       0.199000
     46 H14          7.2950    -2.3060     1.2930 ha         1 30Q       0.198000
     47 H15          5.4970    -2.0900    -1.6250 hc         1 30Q       0.054700
     48 H16          5.8040    -3.1520    -0.2610 hc         1 30Q       0.054700
     49 H17          3.3690    -3.0070    -0.8170 hc         1 30Q       0.047200
     50 H18          3.6970    -2.4500     0.8150 hc         1 30Q       0.047200
     51 H19          3.2930    -0.7140    -1.6490 hc         1 30Q       0.052700
     52 H20          1.6900    -0.9060     0.9080 hc         1 30Q       0.048700
     53 H21          1.0490    -2.1160    -1.7970 hc         1 30Q       0.044700
     54 H22          0.9440    -2.8720    -0.2190 hc         1 30Q       0.044700
     55 H23         -1.1370    -1.3670    -1.5210 hc         1 30Q       0.048200
     56 H24         -1.1830    -1.9020     0.1420 hc         1 30Q       0.048200
     57 H25         -0.4140     0.1620     0.9870 hc         1 30Q       0.062700
     58 H26         -1.6070     0.9690    -1.6880 hc         1 30Q       0.074700
     59 H27         -0.6570     2.9960    -0.7540 hc         1 30Q       0.044700
     60 H28         -2.3700     3.0370    -0.3950 hc         1 30Q       0.044700
     61 H29         -1.2170     2.6030     0.8730 hc         1 30Q       0.044700
     62 H30         -5.9800    -1.2260    -0.9370 h1         1 30Q       0.086700
     63 H31         -5.0290    -1.1620     0.5470 h1         1 30Q       0.086700
     64 H32         -5.7040     1.2560     0.8410 h1         1 30Q       0.065700
     65 H33         -6.6630     1.1560    -0.6260 h1         1 30Q       0.065700
     66 H34         -7.2680     0.0370     2.0050 hn         1 30Q       0.313500
     67 H35         -9.1170    -1.9050     1.8350 hc         1 30Q       0.054200
     68 H36         -9.5510    -0.2970     2.3470 hc         1 30Q       0.054200
     69 H37        -11.3480    -0.2160     0.5670 hc         1 30Q       0.043033
     70 H38        -10.9030    -1.8440     0.0610 hc         1 30Q       0.043033
     71 H39        -11.5660    -1.5710     1.6680 hc         1 30Q       0.043033
@<TRIPOS>BOND
     1     1     2 1   
     2     1    33 1   
     3     1    34 1   
     4     1    35 1   
     5     2     3 1   
     6     2    17 1   
     7     2    20 1   
     8     3     4 1   
     9     3    36 1   
    10     3    37 1   
    11     4     5 1   
    12     4    38 1   
    13     4    39 1   
    14     5     6 1   
    15     5    16 1   
    16     5    40 1   
    17     6     7 1   
    18     6     8 1   
    19     6    13 1   
    20     7    41 1   
    21     7    42 1   
    22     7    43 1   
    23     8     9 2   
    24     8    44 1   
    25     9    10 1   
    26     9    45 1   
    27    10    11 2   
    28    10    12 1   
    29    12    13 2   
    30    12    46 1   
    31    13    14 1   
    32    14    15 1   
    33    14    47 1   
    34    14    48 1   
    35    15    16 1   
    36    15    49 1   
    37    15    50 1   
    38    16    17 1   
    39    16    51 1   
    40    17    18 1   
    41    17    52 1   
    42    18    19 1   
    43    18    53 1   
    44    18    54 1   
    45    19    20 1   
    46    19    55 1   
    47    19    56 1   
    48    20    21 1   
    49    20    57 1   
    50    21    22 1   
    51    21    23 1   
    52    21    58 1   
    53    22    59 1   
    54    22    60 1   
    55    22    61 1   
    56    23    24 2   
    57    23    25 1   
    58    25    26 1   
    59    26    27 1   
    60    26    62 1   
    61    26    63 1   
    62    27    28 1   
    63    27    64 1   
    64    27    65 1   
    65    28    29 1   
    66    28    66 1   
    67    29    30 2   
    68    29    31 1   
    69    31    32 1   
    70    31    67 1   
    71    31    68 1   
    72    32    69 1   
    73    32    70 1   
    74    32    71 1   
@<TRIPOS>SUBSTRUCTURE
     1 30Q         1 TEMP              0 ****  ****    0 ROOT
