@<TRIPOS>MOLECULE
30R
   49    50     1     0     0
SMALL
abcg2


@<TRIPOS>ATOM
      1 C1           0.3700     0.9040     1.0530 c3         1 30R       0.158500
      2 C2          -0.3830     1.7980     0.0640 c          1 30R       0.575100
      3 C3           6.6280     0.2720    -0.6850 c3         1 30R       0.194100
      4 O3          -1.5530     1.6310    -0.2140 o          1 30R      -0.566100
      5 N4           0.3770     2.7950    -0.4160 ns         1 30R      -0.392400
      6 N5           7.1040     0.6400     0.6380 n8         1 30R      -0.996200
      7 C10         -2.3970    -1.1520     0.6700 ca         1 30R      -0.300500
      8 C11         -2.7420    -1.3750    -0.6570 ca         1 30R       0.017000
      9 C12         -3.9890    -1.0030    -1.1360 ca         1 30R      -0.127300
     10 C13         -4.8580    -0.4170    -0.2230 ca         1 30R       0.227000
     11 C14         -4.5410    -0.2010     1.1020 ca         1 30R      -0.168000
     12 C15         -3.2870    -0.5740     1.5580 ca         1 30R       0.019000
     13 C17         -4.3910    -1.2240    -2.5620 c3         1 30R      -0.041800
     14 C18          0.8910    -0.7210    -0.7010 c3         1 30R       0.249100
     15 C19          2.3710    -0.4450    -0.6860 ca         1 30R      -0.104300
     16 C20          2.9410     0.4220    -1.6080 ca         1 30R      -0.103000
     17 C21          4.3130     0.6520    -1.6080 ca         1 30R      -0.099000
     18 C22          5.1410     0.0310    -0.6820 ca         1 30R      -0.082300
     19 C23          4.5610    -0.8280     0.2540 ca         1 30R      -0.099000
     20 C24          3.1980    -1.0670     0.2480 ca         1 30R      -0.103000
     21 C28         -0.0910     1.2460     2.4640 c3         1 30R      -0.099100
     22 N6           0.2980    -0.4930     0.6190 n3         1 30R      -0.750500
     23 O5          -0.1210     3.6630    -1.3350 oh         1 30R      -0.419100
     24 S7          -0.7760    -1.6030     1.2110 sy         1 30R       1.185600
     25 O8          -0.7560    -1.5370     2.6610 o          1 30R      -0.539000
     26 O9          -0.4380    -2.8660     0.5710 o          1 30R      -0.539000
     27 F16         -6.0710    -0.0500    -0.6570 f          1 30R      -0.174000
     28 H1           1.4370     1.1470     1.0180 h1         1 30R       0.071700
     29 H2           6.8640     1.0060    -1.4670 h1         1 30R       0.036200
     30 H3           7.1340    -0.6530    -0.9760 h1         1 30R       0.036200
     31 H4           1.3700     2.8670    -0.2480 hn         1 30R       0.344500
     32 H5           8.1140     0.7090     0.6230 hn         1 30R       0.396000
     33 H6           6.7640     1.5650     0.8720 hn         1 30R       0.396000
     34 H8          -2.0450    -1.8470    -1.3390 ha         1 30R       0.125000
     35 H9          -5.2630     0.2500     1.7690 ha         1 30R       0.134000
     36 H10         -3.0250    -0.4120     2.5940 ha         1 30R       0.137000
     37 H11         -5.2500    -1.8920    -2.6380 hc         1 30R       0.049033
     38 H12         -4.6650    -0.2870    -3.0500 hc         1 30R       0.049033
     39 H13         -3.5730    -1.6660    -3.1270 hc         1 30R       0.049033
     40 H14          0.4020    -0.1060    -1.4630 h1         1 30R       0.072200
     41 H15          0.7250    -1.7560    -0.9920 h1         1 30R       0.072200
     42 H16          2.3140     0.9240    -2.3360 ha         1 30R       0.120500
     43 H17          4.7390     1.3330    -2.3360 ha         1 30R       0.121000
     44 H18          5.1880    -1.3110     0.9920 ha         1 30R       0.121000
     45 H19          2.7670    -1.7400     0.9800 ha         1 30R       0.120500
     46 H20          0.4400     0.6590     3.2080 hc         1 30R       0.061033
     47 H21          0.1450     2.2960     2.6340 hc         1 30R       0.061033
     48 H22         -1.1610     1.1230     2.6070 hc         1 30R       0.061033
     49 H23         -0.4670     4.4180    -0.8400 ho         1 30R       0.442000
@<TRIPOS>BOND
     1     1     2 1   
     2     1    21 1   
     3     1    22 1   
     4     1    28 1   
     5     2     4 2   
     6     2     5 1   
     7     3     6 1   
     8     3    18 1   
     9     3    29 1   
    10     3    30 1   
    11     5    23 1   
    12     5    31 1   
    13     6    32 1   
    14     6    33 1   
    15     7     8 ar  
    16     7    12 ar  
    17     7    24 1   
    18     8     9 ar  
    19     8    34 1   
    20     9    10 ar  
    21     9    13 1   
    22    10    11 ar  
    23    10    27 1   
    24    11    12 ar  
    25    11    35 1   
    26    12    36 1   
    27    13    37 1   
    28    13    38 1   
    29    13    39 1   
    30    14    15 1   
    31    14    22 1   
    32    14    40 1   
    33    14    41 1   
    34    15    16 ar  
    35    15    20 ar  
    36    16    17 ar  
    37    16    42 1   
    38    17    18 ar  
    39    17    43 1   
    40    18    19 ar  
    41    19    20 ar  
    42    19    44 1   
    43    20    45 1   
    44    21    46 1   
    45    21    47 1   
    46    21    48 1   
    47    22    24 1   
    48    23    49 1   
    49    24    25 2   
    50    24    26 2   
@<TRIPOS>SUBSTRUCTURE
     1 30R         1 TEMP              0 ****  ****    0 ROOT
