@<TRIPOS>MOLECULE
30R
   49    50     1     0     0
SMALL
No Charge or Current Charge


@<TRIPOS>ATOM
      1 C1           0.2780     0.3140     1.3480 c3         1 30R       0.158500
      2 C2          -0.4350     1.3140     0.3670 c          1 30R       0.575100
      3 C3           6.4110     0.8670    -0.7090 c3         1 30R       0.194100
      4 O3          -1.5180     1.8420     0.5990 o          1 30R      -0.566100
      5 N4           0.3120     1.6620    -0.7560 ns         1 30R      -0.392400
      6 N5           6.4360     2.2570    -0.2180 n8         1 30R      -0.996200
      7 C10         -2.4660    -1.1160     0.6580 ca         1 30R      -0.300500
      8 C11         -2.6090    -0.9260    -0.7320 ca         1 30R       0.017000
      9 C12         -3.6780    -0.1610    -1.2390 ca         1 30R      -0.127300
     10 C13         -4.6080     0.3970    -0.3400 ca         1 30R       0.227000
     11 C14         -4.4830     0.1900     1.0420 ca         1 30R      -0.168000
     12 C15         -3.4140    -0.5680     1.5460 ca         1 30R       0.019000
     13 C17         -3.8190     0.0610    -2.7400 c3         1 30R      -0.041800
     14 C18          1.0580    -1.5310    -0.2280 c3         1 30R       0.249100
     15 C19          2.4450    -0.8990    -0.3490 ca         1 30R      -0.104300
     16 C20          2.8510    -0.2960    -1.5570 ca         1 30R      -0.103000
     17 C21          4.1290     0.2800    -1.6710 ca         1 30R      -0.099000
     18 C22          5.0220     0.2520    -0.5830 ca         1 30R      -0.082300
     19 C23          4.6250    -0.3650     0.6180 ca         1 30R      -0.099000
     20 C24          3.3480    -0.9420     0.7320 ca         1 30R      -0.103000
     21 C28         -0.1000     0.6010     2.8220 c3         1 30R      -0.099100
     22 N6           0.3040    -1.1620     1.0030 n3         1 30R      -0.750500
     23 O5          -0.2940     2.3650    -1.8680 oh         1 30R      -0.419100
     24 S7          -1.1060    -2.1100     1.2840 sy         1 30R       1.185600
     25 O8          -1.2150    -2.2940     2.7350 o          1 30R      -0.539000
     26 O9          -0.9960    -3.2750     0.3990 o          1 30R      -0.539000
     27 F16         -5.6440     1.1340    -0.8030 f          1 30R      -0.174000
     28 H1           1.3180     0.6570     1.3100 h1         1 30R       0.071700
     29 H2           6.7270     0.8570    -1.7620 h1         1 30R       0.036200
     30 H3           7.1340     0.2730    -0.1320 h1         1 30R       0.036200
     31 H4           1.1700     1.1530    -0.9600 hn         1 30R       0.344500
     32 H5           7.3620     2.6600    -0.4060 hn         1 30R       0.396000
     33 H6           5.8020     2.8200    -0.7970 hn         1 30R       0.396000
     34 H8          -1.8900    -1.3670    -1.4200 ha         1 30R       0.125000
     35 H9          -5.2130     0.6200     1.7210 ha         1 30R       0.134000
     36 H10         -3.3300    -0.7240     2.6210 ha         1 30R       0.137000
     37 H11         -4.7830    -0.3150    -3.1040 hc         1 30R       0.049033
     38 H12         -3.7620     1.1280    -2.9850 hc         1 30R       0.049033
     39 H13         -3.0310    -0.4500    -3.3060 hc         1 30R       0.049033
     40 H14          0.4700    -1.2770    -1.1200 h1         1 30R       0.072200
     41 H15          1.2260    -2.6160    -0.2620 h1         1 30R       0.072200
     42 H16          2.1810    -0.2770    -2.4150 ha         1 30R       0.120500
     43 H17          4.4270     0.7430    -2.6090 ha         1 30R       0.121000
     44 H18          5.3070    -0.3990     1.4650 ha         1 30R       0.121000
     45 H19          3.0540    -1.4170     1.6660 ha         1 30R       0.120500
     46 H20          0.4650    -0.0530     3.4980 hc         1 30R       0.061033
     47 H21          0.1400     1.6390     3.0810 hc         1 30R       0.061033
     48 H22         -1.1690     0.4510     3.0050 hc         1 30R       0.061033
     49 H23          0.3130     3.1270    -2.0210 ho         1 30R       0.442000
@<TRIPOS>BOND
     1     1     2 1   
     2     1    21 1   
     3     1    22 1   
     4     1    28 1   
     5     2     4 2   
     6     2     5 1   
     7     3     6 1   
     8     3    18 1   
     9     3    29 1   
    10     3    30 1   
    11     5    23 1   
    12     5    31 1   
    13     6    32 1   
    14     6    33 1   
    15     7     8 ar  
    16     7    12 ar  
    17     7    24 1   
    18     8     9 ar  
    19     8    34 1   
    20     9    10 ar  
    21     9    13 1   
    22    10    11 ar  
    23    10    27 1   
    24    11    12 ar  
    25    11    35 1   
    26    12    36 1   
    27    13    37 1   
    28    13    38 1   
    29    13    39 1   
    30    14    15 1   
    31    14    22 1   
    32    14    40 1   
    33    14    41 1   
    34    15    16 ar  
    35    15    20 ar  
    36    16    17 ar  
    37    16    42 1   
    38    17    18 ar  
    39    17    43 1   
    40    18    19 ar  
    41    19    20 ar  
    42    19    44 1   
    43    20    45 1   
    44    21    46 1   
    45    21    47 1   
    46    21    48 1   
    47    22    24 1   
    48    23    49 1   
    49    24    25 2   
    50    24    26 2   
@<TRIPOS>SUBSTRUCTURE
     1 30R         1 TEMP              0 ****  ****    0 ROOT
