@<TRIPOS>MOLECULE
30S
   37    39     1     0     0
SMALL
No Charge or Current Charge


@<TRIPOS>ATOM
      1 C1          -2.4780     3.0900     0.9030 ca         1 30S      -0.107000
      2 C2          -3.7110     3.0160     0.2460 ca         1 30S      -0.143000
      3 C3          -4.1150     1.8150    -0.3560 ca         1 30S      -0.033000
      4 C4          -3.2890     0.6650    -0.3200 ca         1 30S      -0.210500
      5 C5          -2.0180     0.7490     0.3270 ca         1 30S      -0.005300
      6 C6          -1.6430     1.9650     0.9440 ca         1 30S      -0.138000
      7 C7          -1.0400    -0.4350     0.4150 c3         1 30S       0.195900
      8 O1           0.3100     0.0370     0.2170 os         1 30S      -0.377100
      9 C8           1.4150    -0.7930     0.2740 ca         1 30S       0.224100
     10 C9           1.2670    -2.1710     0.5500 ca         1 30S      -0.248000
     11 C10          2.3840    -3.0140     0.5960 ca         1 30S      -0.028000
     12 C11          3.6620    -2.4920     0.3630 ca         1 30S      -0.181000
     13 C12          3.8410    -1.1280     0.0850 ca         1 30S       0.125000
     14 C13          2.7150    -0.2650     0.0450 ca         1 30S      -0.247000
     15 C14          2.9880     1.0950    -0.2380 ca         1 30S       0.456900
     16 N1           4.2180     1.5570    -0.4690 nb         1 30S      -0.376000
     17 C15          5.1910     0.6520    -0.4040 ca         1 30S       0.420900
     18 N2           5.0820    -0.6520    -0.1420 nb         1 30S      -0.312000
     19 N3           6.4370     1.1130    -0.6380 nv         1 30S      -1.064900
     20 N4           2.0480     2.0650    -0.3060 nv         1 30S      -1.062900
     21 S1          -3.9010    -0.9130    -1.1090 s6         1 30S       1.253100
     22 O2          -2.9680    -1.0570    -2.2350 o          1 30S      -0.690200
     23 O3          -3.7260    -1.8810    -0.0160 o          1 30S      -0.690200
     24 H1          -2.1680     4.0180     1.3790 ha         1 30S       0.090000
     25 H2          -4.3610     3.8870     0.2100 ha         1 30S       0.094000
     26 H3          -5.0830     1.7880    -0.8510 ha         1 30S       0.138000
     27 H4          -0.6920     2.0410     1.4670 ha         1 30S       0.102000
     28 H6          -1.1460    -0.8980     1.4050 h1         1 30S       0.080200
     29 H5          -1.2640    -1.1960    -0.3380 h1         1 30S       0.080200
     30 H7           0.2920    -2.6110     0.7310 ha         1 30S       0.142000
     31 H8           2.2610    -4.0740     0.8090 ha         1 30S       0.107000
     32 H9           4.5240    -3.1540     0.3960 ha         1 30S       0.121000
     33 H10          6.5320     2.0310    -1.0630 hn         1 30S       0.479500
     34 H11          7.1720     0.4380    -0.8310 hn         1 30S       0.479500
     35 H12          1.0810     1.7470    -0.3100 hn         1 30S       0.507000
     36 H13          2.2650     2.9130    -0.8190 hn         1 30S       0.507000
     37 O4          -5.2910    -0.5910    -1.4650 o          1 30S      -0.690200
@<TRIPOS>BOND
     1     1     2 ar  
     2     1     6 ar  
     3     1    24 1   
     4     2     3 ar  
     5     2    25 1   
     6     3     4 ar  
     7     3    26 1   
     8     4     5 ar  
     9     4    21 1   
    10     5     6 ar  
    11     5     7 1   
    12     6    27 1   
    13     7     8 1   
    14     7    28 1   
    15     7    29 1   
    16     8     9 1   
    17     9    10 ar  
    18     9    14 ar  
    19    10    11 ar  
    20    10    30 1   
    21    11    12 ar  
    22    11    31 1   
    23    12    13 ar  
    24    12    32 1   
    25    13    14 ar  
    26    13    18 ar  
    27    14    15 ar  
    28    15    16 ar  
    29    15    20 1   
    30    16    17 ar  
    31    17    18 ar  
    32    17    19 1   
    33    19    33 1   
    34    19    34 1   
    35    20    35 1   
    36    20    36 1   
    37    21    22 1   
    38    21    23 1   
    39    21    37 1   
@<TRIPOS>SUBSTRUCTURE
     1 30S         1 TEMP              0 ****  ****    0 ROOT
