@<TRIPOS>MOLECULE
30S
   37    39     1     0     0
SMALL
bcc


@<TRIPOS>ATOM
      1 C1          -2.3770     3.0880     0.7500 ca         1 30S      -0.125000
      2 C2          -3.6860     2.9590     0.3150 ca         1 30S      -0.161000
      3 C3          -4.1310     1.7330    -0.1560 ca         1 30S      -0.051000
      4 C4          -3.2750     0.6410    -0.2070 ca         1 30S      -0.210500
      5 C5          -1.9440     0.7640     0.2130 ca         1 30S      -0.005300
      6 C6          -1.5210     1.9970     0.7030 ca         1 30S      -0.156000
      7 C7          -0.9980    -0.4080     0.2080 c3         1 30S       0.172700
      8 O1           0.3260     0.0830     0.0690 os         1 30S      -0.353900
      9 C8           1.3530    -0.7840     0.1410 ca         1 30S       0.224100
     10 C9           1.1810    -2.1330     0.3710 ca         1 30S      -0.266000
     11 C10          2.3040    -2.9670     0.4630 ca         1 30S      -0.046000
     12 C11          3.5750    -2.4760     0.3370 ca         1 30S      -0.264300
     13 C12          3.7790    -1.1010     0.0950 ca         1 30S       0.518600
     14 C13          2.6570    -0.2440    -0.0250 ca         1 30S      -0.377600
     15 C14          2.9760     1.1320    -0.3280 ca         1 30S       0.785200
     16 N1           4.2280     1.5360    -0.4150 nb         1 30S      -0.902000
     17 C15          5.2050     0.6310    -0.2380 ca         1 30S       0.946900
     18 N2           5.0500    -0.6570    -0.0130 nb         1 30S      -0.838000
     19 N3           6.4660     1.1180    -0.2780 nv         1 30S      -0.954500
     20 N4           2.0420     2.0670    -0.5350 nv         1 30S      -0.952500
     21 S1          -3.9250    -0.9250    -0.8100 s6         1 30S       1.253100
     22 O2          -3.2090    -1.1840    -2.0720 o          1 30S      -0.690200
     23 O3          -3.6090    -1.8980     0.2510 o          1 30S      -0.690200
     24 H1          -2.0170     4.0330     1.1320 ha         1 30S       0.108000
     25 H2          -4.3620     3.8030     0.3440 ha         1 30S       0.112000
     26 H3          -5.1550     1.6270    -0.4850 ha         1 30S       0.156000
     27 H4          -0.5090     2.1180     1.0660 ha         1 30S       0.120000
     28 H6          -1.0970    -0.9610     1.1470 h1         1 30S       0.080200
     29 H5          -1.2110    -1.0980    -0.6090 h1         1 30S       0.080200
     30 H7           0.1990    -2.5670     0.4900 ha         1 30S       0.160000
     31 H8           2.1500    -4.0230     0.6420 ha         1 30S       0.125000
     32 H9           4.4380    -3.1220     0.4190 ha         1 30S       0.139000
     33 H10          6.6120     2.0250    -0.6860 hn         1 30S       0.424300
     34 H11          7.2230     0.4620    -0.3660 hn         1 30S       0.424300
     35 H12          1.0730     1.8300    -0.6420 hn         1 30S       0.451800
     36 H13          2.3480     2.9750    -0.8430 hn         1 30S       0.451800
     37 O4          -5.3700    -0.7160    -0.9960 o          1 30S      -0.690200
@<TRIPOS>BOND
     1     1     2 ar  
     2     1     6 ar  
     3     1    24 1   
     4     2     3 ar  
     5     2    25 1   
     6     3     4 ar  
     7     3    26 1   
     8     4     5 ar  
     9     4    21 1   
    10     5     6 ar  
    11     5     7 1   
    12     6    27 1   
    13     7     8 1   
    14     7    28 1   
    15     7    29 1   
    16     8     9 1   
    17     9    10 ar  
    18     9    14 ar  
    19    10    11 ar  
    20    10    30 1   
    21    11    12 ar  
    22    11    31 1   
    23    12    13 ar  
    24    12    32 1   
    25    13    14 ar  
    26    13    18 ar  
    27    14    15 ar  
    28    15    16 ar  
    29    15    20 1   
    30    16    17 ar  
    31    17    18 ar  
    32    17    19 1   
    33    19    33 1   
    34    19    34 1   
    35    20    35 1   
    36    20    36 1   
    37    21    22 1   
    38    21    23 1   
    39    21    37 1   
@<TRIPOS>SUBSTRUCTURE
     1 30S         1 TEMP              0 ****  ****    0 ROOT
