@<TRIPOS>MOLECULE
30T
   62    66     1     0     0
SMALL
abcg2


@<TRIPOS>ATOM
      1 C1           1.0860     2.0290    -1.0240 ca         1 30T      -0.211000
      2 C2           2.0400     1.0380    -0.9770 ca         1 30T      -0.125500
      3 C3           1.7420    -0.2840    -0.7040 ca         1 30T      -0.220000
      4 C4           0.3900    -0.5790    -0.4550 ca         1 30T       0.672900
      5 N5          -0.5590     0.3640    -0.4990 nb         1 30T      -0.805000
      6 C6          -0.2360     1.6160    -0.7670 ca         1 30T       0.677900
      7 S7           3.7470     1.4760    -1.2490 sy         1 30T       1.011000
      8 C8           4.3650     1.7130     0.3940 ca         1 30T      -0.260500
      9 C9           4.3500     2.9870     0.9460 ca         1 30T      -0.013500
     10 C10          4.8350     3.1640     2.2330 ca         1 30T      -0.129500
     11 C11          5.3240     2.0790     2.9500 ca         1 30T      -0.056000
     12 C12          5.3330     0.8110     2.3840 ca         1 30T      -0.129500
     13 C13          4.8550     0.6200     1.0970 ca         1 30T      -0.013500
     14 O14          4.4210     0.3210    -1.8330 o          1 30T      -0.524000
     15 O15          3.7860     2.7580    -1.9440 o          1 30T      -0.524000
     16 N16         -0.0340    -1.8200    -0.1470 nu         1 30T      -0.942100
     17 N17         -1.2210     2.5560    -0.7970 nu         1 30T      -0.895800
     18 C18         -2.5550     2.4140    -0.4670 cc         1 30T       0.507900
     19 C19         -3.3120     1.2720    -0.1400 cc         1 30T      -0.209000
     20 C20         -4.5850     1.7630     0.0920 cd         1 30T      -0.085000
     21 N21         -4.5160     3.0900    -0.1100 na         1 30T       0.004800
     22 N22         -3.2960     3.5100    -0.4410 nd         1 30T      -0.581800
     23 C23          0.8000    -2.9940    -0.0270 c6         1 30T       0.245500
     24 C24          0.0980    -4.0240     0.8530 c6         1 30T      -0.093400
     25 C25          0.9460    -5.2790     1.0230 c6         1 30T      -0.090900
     26 C26          1.3100    -5.8840    -0.3240 c6         1 30T       0.168300
     27 C27          2.0230    -4.8540    -1.1940 c6         1 30T      -0.090900
     28 C28          1.1620    -3.6100    -1.3800 c6         1 30T      -0.093400
     29 O29          2.1030    -7.0300    -0.0880 oh         1 30T      -0.658000
     30 C30         -5.8090     1.0650     0.4740 ca         1 30T      -0.022000
     31 C31         -5.7270    -0.1720     1.1160 ca         1 30T      -0.096000
     32 C32         -6.8760    -0.8520     1.4870 ca         1 30T      -0.108000
     33 C33         -8.1270    -0.3050     1.2280 ca         1 30T      -0.102000
     34 C34         -8.2180     0.9260     0.5910 ca         1 30T      -0.108000
     35 C35         -7.0700     1.6040     0.2110 ca         1 30T      -0.096000
     36 H1           1.3230     3.0610    -1.2400 ha         1 30T       0.146000
     37 H2           2.5070    -1.0440    -0.6960 ha         1 30T       0.142000
     38 H3           3.9750     3.8340     0.3880 ha         1 30T       0.135000
     39 H4           4.8360     4.1520     2.6730 ha         1 30T       0.119500
     40 H5           5.7020     2.2250     3.9530 ha         1 30T       0.116000
     41 H6           5.7180    -0.0330     2.9410 ha         1 30T       0.119500
     42 H7           4.8700    -0.3680     0.6550 ha         1 30T       0.135000
     43 H8          -1.0320    -1.9350    -0.0580 hn         1 30T       0.499000
     44 H9          -0.9350     3.5040    -0.9900 hn         1 30T       0.514000
     45 H10         -2.9870     0.2500    -0.1040 ha         1 30T       0.164000
     46 H11         -5.2430     3.7720     0.0310 hn         1 30T       0.374000
     47 H12          1.7260    -2.7040     0.4850 h1         1 30T       0.058700
     48 H13         -0.1230    -3.5860     1.8290 hc         1 30T       0.051950
     49 H14         -0.8650    -4.2860     0.3990 hc         1 30T       0.051950
     50 H15          1.8640    -5.0300     1.5670 hc         1 30T       0.054450
     51 H16          0.4030    -6.0100     1.6280 hc         1 30T       0.054450
     52 H17          0.3750    -6.1650    -0.8340 h1         1 30T       0.027700
     53 H18          2.9740    -4.5820    -0.7230 hc         1 30T       0.054450
     54 H19          2.2650    -5.2890    -2.1680 hc         1 30T       0.054450
     55 H20          0.2380    -3.8690    -1.9080 hc         1 30T       0.051950
     56 H21          1.6870    -2.8830    -2.0050 hc         1 30T       0.051950
     57 H22          2.3180    -7.4250    -0.9390 ho         1 30T       0.444000
     58 H23         -4.7580    -0.6010     1.3380 ha         1 30T       0.114500
     59 H24         -6.7940    -1.8080     1.9870 ha         1 30T       0.116000
     60 H25         -9.0240    -0.8340     1.5190 ha         1 30T       0.116000
     61 H26         -9.1870     1.3580     0.3810 ha         1 30T       0.116000
     62 H27         -7.1680     2.5490    -0.3090 ha         1 30T       0.114500
@<TRIPOS>BOND
     1     1     2 ar  
     2     1     6 ar  
     3     1    36 1   
     4     2     3 ar  
     5     2     7 1   
     6     3     4 ar  
     7     3    37 1   
     8     4     5 ar  
     9     4    16 1   
    10     5     6 ar  
    11     6    17 1   
    12     7     8 1   
    13     7    14 2   
    14     7    15 2   
    15     8     9 ar  
    16     8    13 ar  
    17     9    10 ar  
    18     9    38 1   
    19    10    11 ar  
    20    10    39 1   
    21    11    12 ar  
    22    11    40 1   
    23    12    13 ar  
    24    12    41 1   
    25    13    42 1   
    26    16    23 1   
    27    16    43 1   
    28    17    18 1   
    29    17    44 1   
    30    18    19 1   
    31    18    22 2   
    32    19    20 2   
    33    19    45 1   
    34    20    21 1   
    35    20    30 1   
    36    21    22 1   
    37    21    46 1   
    38    23    24 1   
    39    23    28 1   
    40    23    47 1   
    41    24    25 1   
    42    24    48 1   
    43    24    49 1   
    44    25    26 1   
    45    25    50 1   
    46    25    51 1   
    47    26    27 1   
    48    26    29 1   
    49    26    52 1   
    50    27    28 1   
    51    27    53 1   
    52    27    54 1   
    53    28    55 1   
    54    28    56 1   
    55    29    57 1   
    56    30    31 ar  
    57    30    35 ar  
    58    31    32 ar  
    59    31    58 1   
    60    32    33 ar  
    61    32    59 1   
    62    33    34 ar  
    63    33    60 1   
    64    34    35 ar  
    65    34    61 1   
    66    35    62 1   
@<TRIPOS>SUBSTRUCTURE
     1 30T         1 TEMP              0 ****  ****    0 ROOT
