@<TRIPOS>MOLECULE
30T
   62    66     1     0     0
SMALL
No Charge or Current Charge


@<TRIPOS>ATOM
      1 C1           1.2210     1.7210    -1.1390 ca         1 30T      -0.211000
      2 C2           2.2900     0.8580    -0.8180 ca         1 30T      -0.125500
      3 C3           1.9410    -0.4430    -0.4040 ca         1 30T      -0.220000
      4 C4           0.5850    -0.7920    -0.3560 ca         1 30T       0.672900
      5 N5          -0.4200     0.0170    -0.6530 nb         1 30T      -0.805000
      6 C6          -0.0990     1.2550    -1.0290 ca         1 30T       0.677900
      7 S7           4.0220     1.4010    -0.9030 sy         1 30T       1.011000
      8 C8           4.3370     2.0070     0.7690 ca         1 30T      -0.260500
      9 C9           4.0980     3.3600     1.0900 ca         1 30T      -0.013500
     10 C10          4.3300     3.8240     2.3970 ca         1 30T      -0.129500
     11 C11          4.7960     2.9430     3.3870 ca         1 30T      -0.056000
     12 C12          5.0290     1.5940     3.0710 ca         1 30T      -0.129500
     13 C13          4.7990     1.1230     1.7670 ca         1 30T      -0.013500
     14 O14          4.8580     0.2100    -1.1120 o          1 30T      -0.524000
     15 O15          4.0920     2.5500    -1.8190 o          1 30T      -0.524000
     16 N16          0.1080    -2.0080     0.0270 nu         1 30T      -0.942100
     17 N17         -1.1490     2.0740    -1.3570 nu         1 30T      -0.895800
     18 C18         -2.4750     2.1010    -1.0820 cc         1 30T       0.507900
     19 C19         -3.1360     1.2960    -0.1500 cc         1 30T      -0.209000
     20 C20         -4.4450     1.6780    -0.1660 cd         1 30T      -0.085000
     21 N21         -4.4850     2.7140    -1.1180 na         1 30T       0.004800
     22 N22         -3.2300     2.9790    -1.6820 nd         1 30T      -0.581800
     23 C23          0.8400    -3.2740    -0.0670 c6         1 30T       0.245500
     24 C24          0.0250    -4.3830     0.6450 c6         1 30T      -0.093400
     25 C25          0.7220    -5.7630     0.5190 c6         1 30T      -0.090900
     26 C26          0.9660    -6.1370    -0.9640 c6         1 30T       0.168300
     27 C27          1.7760    -5.0280    -1.6830 c6         1 30T      -0.090900
     28 C28          1.0810    -3.6480    -1.5550 c6         1 30T      -0.093400
     29 O29          1.6660    -7.3810    -1.0400 oh         1 30T      -0.658000
     30 C30         -5.5730     1.1510     0.6260 ca         1 30T      -0.022000
     31 C31         -5.3750     0.1050     1.5540 ca         1 30T      -0.096000
     32 C32         -6.4490    -0.3970     2.3090 ca         1 30T      -0.108000
     33 C33         -7.7360     0.1390     2.1460 ca         1 30T      -0.102000
     34 C34         -7.9470     1.1790     1.2260 ca         1 30T      -0.108000
     35 C35         -6.8730     1.6820     0.4710 ca         1 30T      -0.096000
     36 H1           1.4090     2.7420    -1.4590 ha         1 30T       0.146000
     37 H2           2.7040    -1.1630    -0.1270 ha         1 30T       0.142000
     38 H3           3.7330     4.0540     0.3350 ha         1 30T       0.135000
     39 H4           4.1470     4.8680     2.6420 ha         1 30T       0.119500
     40 H5           4.9740     3.3040     4.3980 ha         1 30T       0.116000
     41 H6           5.3870     0.9110     3.8390 ha         1 30T       0.119500
     42 H7           4.9800     0.0730     1.5390 ha         1 30T       0.135000
     43 H8          -0.9010    -2.0260    -0.0690 hn         1 30T       0.499000
     44 H9          -0.8750     2.8770    -1.9070 hn         1 30T       0.514000
     45 H10         -2.6750     0.5330     0.4610 ha         1 30T       0.164000
     46 H11         -5.3110     3.2450    -1.3900 hn         1 30T       0.374000
     47 H12          1.8130    -3.1900     0.4420 h1         1 30T       0.058700
     48 H13         -0.1000    -4.1300     1.7070 hc         1 30T       0.051950
     49 H14         -0.9850    -4.4440     0.2160 hc         1 30T       0.051950
     50 H15          1.6770    -5.7440     1.0620 hc         1 30T       0.054450
     51 H16          0.1040    -6.5330     1.0010 hc         1 30T       0.054450
     52 H17         -0.0110    -6.2320    -1.4620 h1         1 30T       0.027700
     53 H18          2.7880    -4.9700    -1.2580 hc         1 30T       0.054450
     54 H19          1.8980    -5.2800    -2.7460 hc         1 30T       0.054450
     55 H20          0.1240    -3.6680    -2.0950 hc         1 30T       0.051950
     56 H21          1.6990    -2.8820    -2.0420 hc         1 30T       0.051950
     57 H22          1.7160    -7.6190    -1.9920 ho         1 30T       0.444000
     58 H23         -4.3880    -0.3260     1.6970 ha         1 30T       0.114500
     59 H24         -6.2830    -1.2030     3.0200 ha         1 30T       0.116000
     60 H25         -8.5680    -0.2490     2.7300 ha         1 30T       0.116000
     61 H26         -8.9430     1.5970     1.0980 ha         1 30T       0.116000
     62 H27         -7.0610     2.4870    -0.2340 ha         1 30T       0.114500
@<TRIPOS>BOND
     1     1     2 ar  
     2     1     6 ar  
     3     1    36 1   
     4     2     3 ar  
     5     2     7 1   
     6     3     4 ar  
     7     3    37 1   
     8     4     5 ar  
     9     4    16 1   
    10     5     6 ar  
    11     6    17 1   
    12     7     8 1   
    13     7    14 2   
    14     7    15 2   
    15     8     9 ar  
    16     8    13 ar  
    17     9    10 ar  
    18     9    38 1   
    19    10    11 ar  
    20    10    39 1   
    21    11    12 ar  
    22    11    40 1   
    23    12    13 ar  
    24    12    41 1   
    25    13    42 1   
    26    16    23 1   
    27    16    43 1   
    28    17    18 1   
    29    17    44 1   
    30    18    19 1   
    31    18    22 2   
    32    19    20 2   
    33    19    45 1   
    34    20    21 1   
    35    20    30 1   
    36    21    22 1   
    37    21    46 1   
    38    23    24 1   
    39    23    28 1   
    40    23    47 1   
    41    24    25 1   
    42    24    48 1   
    43    24    49 1   
    44    25    26 1   
    45    25    50 1   
    46    25    51 1   
    47    26    27 1   
    48    26    29 1   
    49    26    52 1   
    50    27    28 1   
    51    27    53 1   
    52    27    54 1   
    53    28    55 1   
    54    28    56 1   
    55    29    57 1   
    56    30    31 ar  
    57    30    35 ar  
    58    31    32 ar  
    59    31    58 1   
    60    32    33 ar  
    61    32    59 1   
    62    33    34 ar  
    63    33    60 1   
    64    34    35 ar  
    65    34    61 1   
    66    35    62 1   
@<TRIPOS>SUBSTRUCTURE
     1 30T         1 TEMP              0 ****  ****    0 ROOT
