@<TRIPOS>MOLECULE
30U
   37    39     1     0     0
SMALL
No Charge or Current Charge


@<TRIPOS>ATOM
      1 C1          -4.2160    -2.8590    -0.0140 ca         1 30U      -0.033000
      2 C2          -5.1520    -1.8190     0.0100 ca         1 30U      -0.175000
      3 C3          -4.7370    -0.4790     0.0530 ca         1 30U       0.132000
      4 C4          -3.3520    -0.1730     0.0760 ca         1 30U      -0.252000
      5 C5          -2.3980    -1.2260     0.0410 ca         1 30U       0.222100
      6 C6          -2.8470    -2.5650    -0.0010 ca         1 30U      -0.266000
      7 O1          -1.0460    -0.9350     0.0330 os         1 30U      -0.369100
      8 C7          -0.0290    -1.9500    -0.0060 c3         1 30U       0.220900
      9 C8           1.3300    -1.2610    -0.0100 ca         1 30U      -0.114300
     10 C9           1.9840    -0.9700     1.2020 ca         1 30U      -0.122500
     11 C10          3.2380    -0.3340     1.2010 ca         1 30U      -0.031500
     12 C11          3.8560     0.0260    -0.0160 ca         1 30U      -0.203500
     13 C12          3.2000    -0.2710    -1.2300 ca         1 30U      -0.031500
     14 C13          1.9460    -0.9070    -1.2250 ca         1 30U      -0.122500
     15 S1           5.5160     0.8530    -0.0200 s6         1 30U       1.258100
     16 O2           5.4600     1.6620    -1.2480 o          1 30U      -0.689867
     17 O3           5.5010     1.5950     1.2500 o          1 30U      -0.689867
     18 C14         -3.0230     1.2030     0.1260 ca         1 30U       0.461900
     19 N1          -3.9420     2.1700     0.1350 nb         1 30U      -0.374000
     20 C15         -5.2060     1.7590     0.1070 ca         1 30U       0.429900
     21 N2          -5.6600     0.5040     0.0690 nb         1 30U      -0.317000
     22 N3          -6.1400     2.7310     0.1150 nv         1 30U      -1.064900
     23 N4          -1.7600     1.6840     0.1760 nv         1 30U      -1.059900
     24 H1          -4.5530    -3.8930    -0.0470 ha         1 30U       0.103000
     25 H2          -6.2130    -2.0550    -0.0050 ha         1 30U       0.124000
     26 H3          -2.1490    -3.3950    -0.0270 ha         1 30U       0.118000
     27 H5          -0.1040    -2.6090     0.8690 h1         1 30U       0.038700
     28 H4          -0.1290    -2.5640    -0.9100 h1         1 30U       0.038700
     29 H6           1.5210    -1.2370     2.1490 ha         1 30U       0.096000
     30 H7           3.7290    -0.1240     2.1490 ha         1 30U       0.133000
     31 H8           3.6610    -0.0110    -2.1800 ha         1 30U       0.133000
     32 H9           1.4530    -1.1250    -2.1690 ha         1 30U       0.096000
     33 H10         -5.8390     3.6800    -0.0930 hn         1 30U       0.484000
     34 H11         -7.0920     2.4850    -0.1430 hn         1 30U       0.484000
     35 H12         -1.0180     1.0060     0.0080 hn         1 30U       0.516500
     36 H13         -1.5950     2.6410    -0.1190 hn         1 30U       0.516500
     37 O4           6.4150    -0.3110    -0.0670 o          1 30U      -0.689867
@<TRIPOS>BOND
     1     1     2 ar  
     2     1     6 ar  
     3     1    24 1   
     4     2     3 ar  
     5     2    25 1   
     6     3     4 ar  
     7     3    21 ar  
     8     4     5 ar  
     9     4    18 ar  
    10     5     6 ar  
    11     5     7 1   
    12     6    26 1   
    13     7     8 1   
    14     8     9 1   
    15     8    27 1   
    16     8    28 1   
    17     9    10 ar  
    18     9    14 ar  
    19    10    11 ar  
    20    10    29 1   
    21    11    12 ar  
    22    11    30 1   
    23    12    13 ar  
    24    12    15 1   
    25    13    14 ar  
    26    13    31 1   
    27    14    32 1   
    28    15    16 1   
    29    15    17 1   
    30    15    37 1   
    31    18    19 ar  
    32    18    23 1   
    33    19    20 ar  
    34    20    21 ar  
    35    20    22 1   
    36    22    33 1   
    37    22    34 1   
    38    23    35 1   
    39    23    36 1   
@<TRIPOS>SUBSTRUCTURE
     1 30U         1 TEMP              0 ****  ****    0 ROOT
