@<TRIPOS>MOLECULE
30U
   37    39     1     0     0
SMALL
bcc


@<TRIPOS>ATOM
      1 C1          -4.1570    -2.8340     0.0030 ca         1 30U      -0.051000
      2 C2          -5.0820    -1.8250     0.0210 ca         1 30U      -0.258300
      3 C3          -4.6570    -0.4780     0.0350 ca         1 30U       0.525600
      4 C4          -3.2700    -0.1900     0.0260 ca         1 30U      -0.382600
      5 C5          -2.3400    -1.2630     0.0090 ca         1 30U       0.222100
      6 C6          -2.7810    -2.5700    -0.0020 ca         1 30U      -0.284000
      7 O1          -1.0360    -0.9300     0.0060 os         1 30U      -0.345900
      8 C7          -0.0450    -1.9540    -0.0010 c3         1 30U       0.197700
      9 C8           1.2880    -1.2720    -0.0010 ca         1 30U      -0.114300
     10 C9           1.9130    -0.9450     1.1970 ca         1 30U      -0.140500
     11 C10          3.1370    -0.2910     1.2010 ca         1 30U      -0.049500
     12 C11          3.7420     0.0470    -0.0020 ca         1 30U      -0.203500
     13 C12          3.1220    -0.2660    -1.2050 ca         1 30U      -0.049500
     14 C13          1.9000    -0.9200    -1.2000 ca         1 30U      -0.140500
     15 S1           5.3670     0.8020    -0.0180 s6         1 30U       1.258100
     16 O2           5.3460     1.7530    -1.1420 o          1 30U      -0.689867
     17 O3           5.5220     1.4500     1.2950 o          1 30U      -0.689867
     18 C14         -2.9420     1.2180     0.0320 ca         1 30U       0.790200
     19 N1          -3.8910     2.1350     0.0560 nb         1 30U      -0.900000
     20 C15         -5.1710     1.7300     0.0710 ca         1 30U       0.955900
     21 N2          -5.6020     0.4860     0.0560 nb         1 30U      -0.843000
     22 N3          -6.0930     2.7170     0.1410 nv         1 30U      -0.954500
     23 N4          -1.6870     1.6720     0.0140 nv         1 30U      -0.949500
     24 H1          -4.4870    -3.8650    -0.0060 ha         1 30U       0.121000
     25 H2          -6.1430    -2.0320     0.0280 ha         1 30U       0.142000
     26 H3          -2.0910    -3.4010    -0.0140 ha         1 30U       0.136000
     27 H5          -0.1560    -2.5910     0.8810 h1         1 30U       0.038700
     28 H4          -0.1600    -2.5820    -0.8890 h1         1 30U       0.038700
     29 H6           1.4470    -1.2060     2.1390 ha         1 30U       0.114000
     30 H7           3.6100    -0.0450     2.1420 ha         1 30U       0.151000
     31 H8           3.5810    -0.0000    -2.1480 ha         1 30U       0.151000
     32 H9           1.4230    -1.1640    -2.1420 ha         1 30U       0.114000
     33 H10         -5.8030     3.6570    -0.0680 hn         1 30U       0.428800
     34 H11         -7.0520     2.4870    -0.0510 hn         1 30U       0.428800
     35 H12         -0.8940     1.0570    -0.0100 hn         1 30U       0.461300
     36 H13         -1.5370     2.6660     0.0140 hn         1 30U       0.461300
     37 O4           6.2910    -0.3250    -0.2270 o          1 30U      -0.689867
@<TRIPOS>BOND
     1     1     2 ar  
     2     1     6 ar  
     3     1    24 1   
     4     2     3 ar  
     5     2    25 1   
     6     3     4 ar  
     7     3    21 ar  
     8     4     5 ar  
     9     4    18 ar  
    10     5     6 ar  
    11     5     7 1   
    12     6    26 1   
    13     7     8 1   
    14     8     9 1   
    15     8    27 1   
    16     8    28 1   
    17     9    10 ar  
    18     9    14 ar  
    19    10    11 ar  
    20    10    29 1   
    21    11    12 ar  
    22    11    30 1   
    23    12    13 ar  
    24    12    15 1   
    25    13    14 ar  
    26    13    31 1   
    27    14    32 1   
    28    15    16 1   
    29    15    17 1   
    30    15    37 1   
    31    18    19 ar  
    32    18    23 1   
    33    19    20 ar  
    34    20    21 ar  
    35    20    22 1   
    36    22    33 1   
    37    22    34 1   
    38    23    35 1   
    39    23    36 1   
@<TRIPOS>SUBSTRUCTURE
     1 30U         1 TEMP              0 ****  ****    0 ROOT
