@<TRIPOS>MOLECULE
30V
   28    28     1     0     0
SMALL
bcc


@<TRIPOS>ATOM
      1 N           -2.8660     0.0000    -1.3260 n8         1 30V      -0.888800
      2 CA          -3.1850    -0.3100     0.0530 c3         1 30V       0.009500
      3 CB          -1.9210    -0.3370     0.9110 c3         1 30V       0.068700
      4 SG          -0.6580    -1.4850     0.2900 ss         1 30V      -0.239100
      5 SE           0.2260    -0.3550    -1.3680 ss         1 30V      -0.131900
      6 C06          1.9630     0.0390    -0.6540 ca         1 30V       0.116900
      7 C07          2.7700    -0.8600     0.0510 ca         1 30V      -0.129600
      8 C08          2.3920    -2.2980     0.2550 c          1 30V       0.685700
      9 N09          2.6000    -2.7670     1.4930 nt         1 30V      -0.671000
     10 O16          1.9820    -2.9880    -0.6650 o          1 30V      -0.578100
     11 C17          4.0180    -0.4380     0.5070 ca         1 30V      -0.117000
     12 C18          4.4830     0.8430     0.2500 ca         1 30V      -0.146000
     13 C19          3.6850     1.7280    -0.4570 ca         1 30V      -0.121000
     14 C20          2.4260     1.3310    -0.8890 ca         1 30V      -0.115000
     15 C           -4.2020     0.6400     0.7440 c          1 30V       0.905600
     16 O           -4.4780     1.7050     0.1610 o          1 30V      -0.830300
     17 H           -3.6630    -0.2310    -1.9060 hn         1 30V       0.335300
     18 H2          -2.7620     1.0050    -1.4150 hn         1 30V       0.335300
     19 HA          -3.6050    -1.3210     0.0730 h1         1 30V       0.051700
     20 HB2         -1.4790     0.6560     1.0180 h1         1 30V       0.075200
     21 HB1         -2.1630    -0.6970     1.9130 h1         1 30V       0.075200
     22 H7           2.8120    -2.1560     2.2640 hn         1 30V       0.309500
     23 H8           2.3710    -3.7230     1.7120 hn         1 30V       0.309500
     24 H9           4.6510    -1.1310     1.0490 ha         1 30V       0.125000
     25 H10          5.4600     1.1430     0.6020 ha         1 30V       0.123000
     26 H11          4.0260     2.7350    -0.6590 ha         1 30V       0.125000
     27 H12          1.7990     2.0470    -1.4060 ha         1 30V       0.147000
     28 OXT         -4.6330     0.2540     1.8490 o          1 30V      -0.830300
@<TRIPOS>BOND
     1     1     2 1   
     2     1    17 1   
     3     1    18 1   
     4     2     3 1   
     5     2    15 1   
     6     2    19 1   
     7     3     4 1   
     8     3    20 1   
     9     3    21 1   
    10     4     5 1   
    11     5     6 1   
    12     6     7 ar  
    13     6    14 ar  
    14     7     8 1   
    15     7    11 ar  
    16     8     9 1   
    17     8    10 2   
    18     9    22 1   
    19     9    23 1   
    20    11    12 ar  
    21    11    24 1   
    22    12    13 ar  
    23    12    25 1   
    24    13    14 ar  
    25    13    26 1   
    26    14    27 1   
    27    15    16 1   
    28    15    28 1   
@<TRIPOS>SUBSTRUCTURE
     1 30V         1 TEMP              0 ****  ****    0 ROOT
