@<TRIPOS>MOLECULE
30W
   24    25     1     0     0
SMALL
No Charge or Current Charge


@<TRIPOS>ATOM
      1 C4         -88.7200    63.0410    93.6420 c          1 30W       0.489500
      2 C6         -89.7960    66.3150    92.2910 ca         1 30W       0.146500
      3 C11        -83.5680    61.4430    95.7790 c3         1 30W      -0.175100
      4 C7         -88.6030    67.0460    92.4470 ca         1 30W       0.128900
      5 C9         -91.0210    66.9690    91.6980 c          1 30W       0.492400
      6 C10        -84.9850    61.6460    95.2640 c          1 30W       0.623100
      7 N1         -86.3250    64.6470    93.9120 nc         1 30W      -0.762700
      8 N3         -87.5360    62.6240    94.1480 ns         1 30W      -0.443400
      9 O10        -85.8150    60.7470    95.2760 o          1 30W      -0.564100
     10 C2         -86.4120    63.3740    94.2760 cd         1 30W       0.597500
     11 C8A        -87.5080    65.2020    93.3640 ca         1 30W       0.335000
     12 N8         -87.4870    66.4980    92.9720 nb         1 30W      -0.116000
     13 N5         -89.8590    65.0120    92.6720 nb         1 30W      -0.534000
     14 C4A        -88.7210    64.4700    93.2020 ca         1 30W       0.152500
     15 O4         -89.6800    62.2850    93.5680 o          1 30W      -0.472000
     16 H1         -83.3980    60.4250    96.1470 hc         1 30W       0.079033
     17 H2         -82.8580    61.7110    94.9880 hc         1 30W       0.079033
     18 H3         -83.3570    62.1920    96.5500 hc         1 30W       0.079033
     19 H4         -88.5330    68.0900    92.1480 h4         1 30W       0.053100
     20 H5         -91.9180    66.3150    91.6130 h4         1 30W       0.025200
     21 H8         -84.4850    63.5550    94.8360 hn         1 30W       0.357500
     22 H9         -87.5000    61.6610    94.4560 hn         1 30W       0.376500
     23 O9         -91.0640    68.1400    91.3240 o          1 30W      -0.511100
     24 N2         -85.2520    62.9030    94.7920 ns         1 30W      -0.437400
@<TRIPOS>BOND
     1     1     8 1   
     2     1    14 1   
     3     1    15 2   
     4     2     4 ar  
     5     2     5 1   
     6     2    13 ar  
     7     3     6 1   
     8     3    16 1   
     9     3    17 1   
    10     3    18 1   
    11     4    12 ar  
    12     4    19 1   
    13     5    20 1   
    14     5    23 2   
    15     6     9 2   
    16     6    24 1   
    17     7    10 2   
    18     7    11 1   
    19     8    10 1   
    20     8    22 1   
    21    10    24 1   
    22    11    12 ar  
    23    11    14 ar  
    24    13    14 ar  
    25    21    24 1   
@<TRIPOS>SUBSTRUCTURE
     1 30W         1 TEMP              0 ****  ****    0 ROOT
