@<TRIPOS>MOLECULE
30W
   24    25     1     0     0
SMALL
abcg2


@<TRIPOS>ATOM
      1 C4         -88.7030    63.0820    93.6290 c          1 30W       0.489500
      2 C6         -89.7520    66.2890    92.3170 ca         1 30W       0.146500
      3 C11        -83.6420    61.4330    95.7720 c3         1 30W      -0.175100
      4 C7         -88.5720    67.0460    92.4580 ca         1 30W       0.128900
      5 C9         -90.9920    66.8610    91.7520 c          1 30W       0.492400
      6 C10        -85.0270    61.6610    95.2430 c          1 30W       0.623100
      7 N1         -86.3580    64.7260    93.8640 nc         1 30W      -0.762700
      8 N3         -87.4800    62.6690    94.1420 ns         1 30W      -0.443400
      9 O10        -85.8980    60.8060    95.2230 o          1 30W      -0.564100
     10 C2         -86.3930    63.4750    94.2380 cd         1 30W       0.597500
     11 C8A        -87.4990    65.2460    93.3460 ca         1 30W       0.335000
     12 N8         -87.4650    66.5410    92.9610 nb         1 30W      -0.116000
     13 N5         -89.7990    65.0160    92.6910 nb         1 30W      -0.534000
     14 C4A        -88.6920    64.4910    93.2000 ca         1 30W       0.152500
     15 O4         -89.6480    62.3200    93.5630 o          1 30W      -0.472000
     16 H1         -83.5630    60.4160    96.1440 hc         1 30W       0.079033
     17 H2         -82.9100    61.5970    94.9790 hc         1 30W       0.079033
     18 H3         -83.4270    62.1420    96.5740 hc         1 30W       0.079033
     19 H4         -88.5570    68.0840    92.1460 h4         1 30W       0.053100
     20 H5         -91.8330    66.1480    91.7040 h4         1 30W       0.025200
     21 H8         -84.4750    63.6020    94.8110 hn         1 30W       0.357500
     22 H9         -87.3740    61.7090    94.4720 hn         1 30W       0.376500
     23 O9         -91.0980    68.0070    91.3700 o          1 30W      -0.511100
     24 N2         -85.2430    62.9450    94.7670 ns         1 30W      -0.437400
@<TRIPOS>BOND
     1     1     8 1   
     2     1    14 1   
     3     1    15 2   
     4     2     4 ar  
     5     2     5 1   
     6     2    13 ar  
     7     3     6 1   
     8     3    16 1   
     9     3    17 1   
    10     3    18 1   
    11     4    12 ar  
    12     4    19 1   
    13     5    20 1   
    14     5    23 2   
    15     6     9 2   
    16     6    24 1   
    17     7    10 2   
    18     7    11 1   
    19     8    10 1   
    20     8    22 1   
    21    10    24 1   
    22    11    12 ar  
    23    11    14 ar  
    24    13    14 ar  
    25    21    24 1   
@<TRIPOS>SUBSTRUCTURE
     1 30W         1 TEMP              0 ****  ****    0 ROOT
