@<TRIPOS>MOLECULE
30X
   40    40     1     0     0
SMALL
No Charge or Current Charge


@<TRIPOS>ATOM
      1 C10         -0.7710    -0.9350     1.8420 ca         1 30X      -0.144000
      2 C13         -3.6800    -1.0880    -0.5030 cg         1 30X       0.321000
      3 C15         -1.3140    -0.3410    -0.8740 ca         1 30X      -0.115300
      4 C16         -0.0270    -0.1380    -0.3190 ca         1 30X      -0.147000
      5 C17         -1.5750    -0.0080    -2.3580 c3         1 30X       0.356300
      6 C24          3.2670    -1.5760    -2.5190 c3         1 30X       0.086800
      7 C25          3.8050     0.2670    -0.8620 c3         1 30X       0.086800
      8 C1           2.4450    -2.3820     2.4390 c3         1 30X      -0.101100
      9 C2           2.5990    -1.2760     1.3680 c3         1 30X       0.166500
     10 C4           1.7930     0.8660     2.5340 c3         1 30X       0.156800
     11 C5           1.1710     2.2590     2.2190 c3         1 30X       0.274000
     12 F6           1.6360     3.1900     3.0840 f          1 30X      -0.109667
     13 F7           1.4850     2.6670     0.9670 f          1 30X      -0.109667
     14 F8          -0.1780     2.2370     2.3270 f          1 30X      -0.109667
     15 C9           0.2480    -0.4370     1.0230 ca         1 30X       0.375000
     16 C11         -2.0580    -1.1430     1.3220 ca         1 30X      -0.037000
     17 C12         -2.3400    -0.8530    -0.0280 ca         1 30X      -0.022000
     18 N14         -4.7690    -1.2830    -0.8760 n1         1 30X      -0.435000
     19 F18         -1.9890    -1.0940    -3.0520 f          1 30X      -0.108000
     20 F19         -2.5270     0.9420    -2.5000 f          1 30X      -0.108000
     21 F20         -0.4770     0.4540    -2.9990 f          1 30X      -0.108000
     22 C21          2.7100    -1.8840    -0.0870 c          1 30X       0.584100
     23 O22          2.3430    -3.0300    -0.3360 o          1 30X      -0.575100
     24 N23          3.2200    -1.0670    -1.1290 n          1 30X      -0.408800
     25 H10         -0.5610    -1.1640     2.8820 ha         1 30X       0.126000
     26 H16          0.7780     0.2630    -0.9250 ha         1 30X       0.130000
     27 H24          3.5540    -0.7810    -3.2180 h1         1 30X       0.043367
     28 H24A         3.9980    -2.3920    -2.5880 h1         1 30X       0.043367
     29 H24B         2.2780    -1.9540    -2.8090 h1         1 30X       0.043367
     30 H25          4.1590     0.7310    -1.7910 h1         1 30X       0.043367
     31 H25A         3.0530     0.9250    -0.4110 h1         1 30X       0.043367
     32 H25B         4.6580     0.1700    -0.1770 h1         1 30X       0.043367
     33 H1           1.4960    -2.9160     2.3160 hc         1 30X       0.052367
     34 H1A          3.2630    -3.1080     2.3630 hc         1 30X       0.052367
     35 H1B          2.4690    -1.9500     3.4460 hc         1 30X       0.052367
     36 H2           3.5770    -0.8140     1.5540 h1         1 30X       0.064700
     37 H4           1.4280     0.5540     3.5220 h1         1 30X       0.086200
     38 H4A          2.8750     1.0190     2.6440 h1         1 30X       0.086200
     39 H11         -2.8380    -1.5320     1.9730 ha         1 30X       0.128000
     40 N3           1.5400    -0.2310     1.5480 nh         1 30X      -0.811400
@<TRIPOS>BOND
     1     1    15 ar  
     2     1    16 ar  
     3     1    25 1   
     4     2    17 1   
     5     2    18 3   
     6     3     4 ar  
     7     3     5 1   
     8     3    17 ar  
     9     4    15 ar  
    10     4    26 1   
    11     5    19 1   
    12     5    20 1   
    13     5    21 1   
    14     6    24 1   
    15     6    27 1   
    16     6    28 1   
    17     6    29 1   
    18     7    24 1   
    19     7    30 1   
    20     7    31 1   
    21     7    32 1   
    22     8     9 1   
    23     8    33 1   
    24     8    34 1   
    25     8    35 1   
    26     9    22 1   
    27     9    36 1   
    28     9    40 1   
    29    10    11 1   
    30    10    37 1   
    31    10    38 1   
    32    10    40 1   
    33    11    12 1   
    34    11    13 1   
    35    11    14 1   
    36    15    40 1   
    37    16    17 ar  
    38    16    39 1   
    39    22    23 2   
    40    22    24 1   
@<TRIPOS>SUBSTRUCTURE
     1 30X         1 TEMP              0 ****  ****    0 ROOT
