@<TRIPOS>MOLECULE
30X
   40    40     1     0     0
SMALL
abcg2


@<TRIPOS>ATOM
      1 C10         -0.2070    -1.7200     0.3240 ca         1 30X      -0.144000
      2 C13         -3.8170    -2.1700    -0.3550 cg         1 30X       0.321000
      3 C15         -2.4830    -0.1540     0.1810 ca         1 30X      -0.115300
      4 C16         -1.2690     0.4220     0.4780 ca         1 30X      -0.147000
      5 C17         -3.7150     0.6990     0.0770 c3         1 30X       0.356300
      6 C24          4.6350    -1.9380    -1.6410 c3         1 30X       0.086800
      7 C25          5.1650    -1.2530     0.6350 c3         1 30X       0.086800
      8 C1           2.3270    -1.6360     2.0990 c3         1 30X      -0.101100
      9 C2           2.3580    -0.5020     1.0610 c3         1 30X       0.166500
     10 C4           1.2060     1.6570     1.1410 c3         1 30X       0.156800
     11 C5           1.5670     2.4260    -0.1160 c3         1 30X       0.274000
     12 F6           1.5920     3.7420     0.1270 f          1 30X      -0.109667
     13 F7           2.7790     2.0900    -0.5810 f          1 30X      -0.109667
     14 F8           0.7000     2.2200    -1.1130 f          1 30X      -0.109667
     15 C9          -0.0850    -0.3420     0.5790 ca         1 30X       0.375000
     16 C11         -1.4230    -2.2930     0.0330 ca         1 30X      -0.037000
     17 C12         -2.5870    -1.5310    -0.0430 ca         1 30X      -0.022000
     18 N14         -4.7980    -2.7190    -0.6100 n1         1 30X      -0.435000
     19 F18         -4.2630     0.6080    -1.1410 f          1 30X      -0.108000
     20 F19         -4.6480     0.3080     0.9530 f          1 30X      -0.108000
     21 F20         -3.4750     1.9890     0.3050 f          1 30X      -0.108000
     22 C21          2.8820    -0.9470    -0.3150 c          1 30X       0.584100
     23 O22          2.1470    -0.9130    -1.2900 o          1 30X      -0.575100
     24 N23          4.1480    -1.3990    -0.3860 n          1 30X      -0.408800
     25 H10          0.6470    -2.3740     0.3350 ha         1 30X       0.126000
     26 H16         -1.2470     1.4880     0.6300 ha         1 30X       0.130000
     27 H24          5.3820    -2.7010    -1.4300 h1         1 30X       0.043367
     28 H24A         3.8290    -2.3960    -2.2070 h1         1 30X       0.043367
     29 H24B         5.1000    -1.1650    -2.2560 h1         1 30X       0.043367
     30 H25          6.0540    -0.7970     0.1980 h1         1 30X       0.043367
     31 H25A         4.8480    -0.6090     1.4490 h1         1 30X       0.043367
     32 H25B         5.4490    -2.2200     1.0520 h1         1 30X       0.043367
     33 H1           2.0100    -2.5990     1.7060 hc         1 30X       0.052367
     34 H1A          3.3190    -1.7780     2.5220 hc         1 30X       0.052367
     35 H1B          1.6620    -1.3640     2.9180 hc         1 30X       0.052367
     36 H2           3.0580     0.2320     1.4630 h1         1 30X       0.064700
     37 H4           0.2880     2.0700     1.5580 h1         1 30X       0.086200
     38 H4A          1.9720     1.8600     1.8910 h1         1 30X       0.086200
     39 H11         -1.4690    -3.3580    -0.1490 ha         1 30X       0.128000
     40 N3           1.1070     0.2350     0.9290 nh         1 30X      -0.811400
@<TRIPOS>BOND
     1     1    15 ar  
     2     1    16 ar  
     3     1    25 1   
     4     2    17 1   
     5     2    18 3   
     6     3     4 ar  
     7     3     5 1   
     8     3    17 ar  
     9     4    15 ar  
    10     4    26 1   
    11     5    19 1   
    12     5    20 1   
    13     5    21 1   
    14     6    24 1   
    15     6    27 1   
    16     6    28 1   
    17     6    29 1   
    18     7    24 1   
    19     7    30 1   
    20     7    31 1   
    21     7    32 1   
    22     8     9 1   
    23     8    33 1   
    24     8    34 1   
    25     8    35 1   
    26     9    22 1   
    27     9    36 1   
    28     9    40 1   
    29    10    11 1   
    30    10    37 1   
    31    10    38 1   
    32    10    40 1   
    33    11    12 1   
    34    11    13 1   
    35    11    14 1   
    36    15    40 1   
    37    16    17 ar  
    38    16    39 1   
    39    22    23 2   
    40    22    24 1   
@<TRIPOS>SUBSTRUCTURE
     1 30X         1 TEMP              0 ****  ****    0 ROOT
