@<TRIPOS>MOLECULE
30Y
   37    38     1     0     0
SMALL
No Charge or Current Charge


@<TRIPOS>ATOM
      1 ClA        -28.4920    12.5680    17.3280 cl         1 30Y      -0.194000
      2 CAU        -30.0480    11.8460    17.7420 ca         1 30Y       0.119000
      3 CAL        -31.1780    12.1860    16.9800 ca         1 30Y      -0.093000
      4 CAI        -32.4300    11.6300    17.2900 ca         1 30Y      -0.090000
      5 CAJ        -32.5500    10.7400    18.3690 ca         1 30Y      -0.095000
      6 CAN        -31.4200    10.3970    19.1330 ca         1 30Y      -0.072000
      7 CAW        -30.1530    10.9340    18.8170 ca         1 30Y       0.026600
      8 NAR        -28.9890    10.6250    19.5750 ns         1 30Y      -0.304100
      9 CAT        -28.6030     9.5260    20.3150 cs         1 30Y       0.377400
     10 SAC        -29.4470     8.0750    20.3570 s          1 30Y      -0.494400
     11 CAY        -27.2630     9.6980    21.0150 c3         1 30Y      -0.141600
     12 CAH        -26.2950     8.7220    20.5180 c1         1 30Y       0.301900
     13 NAA        -25.5020     7.9620    20.1360 n1         1 30Y      -0.404000
     14 CAS        -27.3250     9.6770    22.5390 c          1 30Y       0.617100
     15 OAB        -26.9180    10.6280    23.1950 o          1 30Y      -0.568100
     16 NAQ        -27.8650     8.5250    23.1020 ns         1 30Y      -0.126000
     17 CAV        -28.0690     8.1180    24.4510 ca         1 30Y      -0.034000
     18 CAP        -27.5890     8.8400    25.5680 ca         1 30Y      -0.088000
     19 CAX        -27.8200     8.3770    26.8840 ca         1 30Y      -0.164300
     20 CAZ        -27.2960     9.1840    28.0790 c3         1 30Y       0.343300
     21 FAE        -26.0460     9.6520    27.8640 f          1 30Y      -0.111000
     22 FAF        -28.0820    10.2560    28.3290 f          1 30Y      -0.111000
     23 FAD        -27.2450     8.4590    29.2200 f          1 30Y      -0.111000
     24 CAO        -28.5490     7.1830    27.0730 ca         1 30Y      -0.081000
     25 CAK        -29.0230     6.4600    25.9680 ca         1 30Y      -0.087000
     26 CAM        -28.7810     6.9240    24.6650 ca         1 30Y      -0.123000
     27 H1         -31.0830    12.8830    16.1510 ha         1 30Y       0.137000
     28 H2         -33.3060    11.8950    16.7010 ha         1 30Y       0.126000
     29 H3         -33.5220    10.3200    18.6210 ha         1 30Y       0.129000
     30 H4         -31.5490     9.7320    19.9810 ha         1 30Y       0.136000
     31 H5         -28.3090    11.3780    19.5610 hn         1 30Y       0.339500
     32 H6         -26.8420    10.6750    20.7550 hc         1 30Y       0.111700
     33 H7         -28.1830     7.8460    22.4220 hn         1 30Y       0.178000
     34 H8         -27.0310     9.7610    25.4360 ha         1 30Y       0.162000
     35 H9         -28.7530     6.8090    28.0750 ha         1 30Y       0.135000
     36 H10        -29.5810     5.5390    26.1220 ha         1 30Y       0.127000
     37 H11        -29.1560     6.3520    23.8190 ha         1 30Y       0.125000
@<TRIPOS>BOND
     1     1     2 1   
     2     2     3 ar  
     3     2     7 ar  
     4     3     4 ar  
     5     3    27 1   
     6     4     5 ar  
     7     4    28 1   
     8     5     6 ar  
     9     5    29 1   
    10     6     7 ar  
    11     6    30 1   
    12     7     8 1   
    13     8     9 1   
    14     8    31 1   
    15     9    10 2   
    16     9    11 1   
    17    11    12 1   
    18    11    14 1   
    19    11    32 1   
    20    12    13 3   
    21    14    15 2   
    22    14    16 1   
    23    16    17 1   
    24    16    33 1   
    25    17    18 ar  
    26    17    26 ar  
    27    18    19 ar  
    28    18    34 1   
    29    19    20 1   
    30    19    24 ar  
    31    20    21 1   
    32    20    22 1   
    33    20    23 1   
    34    24    25 ar  
    35    24    35 1   
    36    25    26 ar  
    37    25    36 1   
    38    26    37 1   
@<TRIPOS>SUBSTRUCTURE
     1 30Y         1 TEMP              0 ****  ****    0 ROOT
