@<TRIPOS>MOLECULE
30Y
   37    38     1     0     0
SMALL
abcg2


@<TRIPOS>ATOM
      1 CLA        -28.5530    12.1230    17.2170 cl         1 30Y      -0.194000
      2 CAU        -29.9960    11.7760    18.1310 ca         1 30Y       0.119000
      3 CAL        -31.2180    12.2680    17.6920 ca         1 30Y      -0.093000
      4 CAI        -32.3680    11.9810    18.4160 ca         1 30Y      -0.090000
      5 CAJ        -32.2940    11.2170    19.5780 ca         1 30Y      -0.095000
      6 CAN        -31.0700    10.7360    20.0150 ca         1 30Y      -0.072000
      7 CAW        -29.9120    11.0080    19.2920 ca         1 30Y       0.026600
      8 NAR        -28.6520    10.5470    19.7520 ns         1 30Y      -0.304100
      9 CAT        -28.3120     9.2710    19.9450 cs         1 30Y       0.377400
     10 SAC        -29.2300     7.9410    19.5930 s          1 30Y      -0.494400
     11 CAY        -26.9480     9.1390    20.6350 c3         1 30Y      -0.141600
     12 CAH        -26.2450     7.9210    20.2620 c1         1 30Y       0.301900
     13 NAA        -25.6430     6.9760    20.0050 n1         1 30Y      -0.404000
     14 CAS        -27.1940     9.2770    22.1690 c          1 30Y       0.617100
     15 OAB        -27.1420    10.3840    22.6710 o          1 30Y      -0.568100
     16 NAQ        -27.5080     8.1250    22.7970 ns         1 30Y      -0.126000
     17 CAV        -27.8620     7.9330    24.1450 ca         1 30Y      -0.034000
     18 CAP        -28.0340     8.9820    25.0460 ca         1 30Y      -0.088000
     19 CAX        -28.3980     8.6940    26.3570 ca         1 30Y      -0.164300
     20 CAZ        -28.6390     9.8360    27.3020 c3         1 30Y       0.343300
     21 FAE        -27.8470    10.9000    27.0450 f          1 30Y      -0.111000
     22 FAF        -29.9170    10.2910    27.2270 f          1 30Y      -0.111000
     23 FAD        -28.4330     9.4960    28.5920 f          1 30Y      -0.111000
     24 CAO        -28.5960     7.3870    26.7860 ca         1 30Y      -0.081000
     25 CAK        -28.4210     6.3480    25.8770 ca         1 30Y      -0.087000
     26 CAM        -28.0570     6.6150    24.5680 ca         1 30Y      -0.123000
     27 H1         -31.2620    12.8630    16.7910 ha         1 30Y       0.137000
     28 H2         -33.3210    12.3610    18.0730 ha         1 30Y       0.126000
     29 H3         -33.1890    11.0020    20.1460 ha         1 30Y       0.129000
     30 H4         -30.9940    10.1510    20.9210 ha         1 30Y       0.136000
     31 H5         -27.9500    11.2590    19.9160 hn         1 30Y       0.339500
     32 H6         -26.3050     9.9810    20.3730 hc         1 30Y       0.111700
     33 H7         -27.5290     7.2870    22.2330 hn         1 30Y       0.178000
     34 H8         -27.8850    10.0000    24.7270 ha         1 30Y       0.162000
     35 H9         -28.8790     7.1780    27.8080 ha         1 30Y       0.135000
     36 H10        -28.5680     5.3240    26.1930 ha         1 30Y       0.127000
     37 H11        -27.9210     5.8040    23.8630 ha         1 30Y       0.125000
@<TRIPOS>BOND
     1     1     2 1   
     2     2     3 ar  
     3     2     7 ar  
     4     3     4 ar  
     5     3    27 1   
     6     4     5 ar  
     7     4    28 1   
     8     5     6 ar  
     9     5    29 1   
    10     6     7 ar  
    11     6    30 1   
    12     7     8 1   
    13     8     9 1   
    14     8    31 1   
    15     9    10 2   
    16     9    11 1   
    17    11    12 1   
    18    11    14 1   
    19    11    32 1   
    20    12    13 3   
    21    14    15 2   
    22    14    16 1   
    23    16    17 1   
    24    16    33 1   
    25    17    18 ar  
    26    17    26 ar  
    27    18    19 ar  
    28    18    34 1   
    29    19    20 1   
    30    19    24 ar  
    31    20    21 1   
    32    20    22 1   
    33    20    23 1   
    34    24    25 ar  
    35    24    35 1   
    36    25    26 ar  
    37    25    36 1   
    38    26    37 1   
@<TRIPOS>SUBSTRUCTURE
     1 30Y         1 TEMP              0 ****  ****    0 ROOT
