@<TRIPOS>MOLECULE
30Z
   44    45     1     0     0
SMALL
No Charge or Current Charge


@<TRIPOS>ATOM
      1 O25         -6.0890     1.3970     1.5730 oh         1 30Z      -0.536100
      2 C19         -5.2340     0.9070     0.6290 ca         1 30Z       0.123100
      3 C18         -3.8470     0.9460     0.8420 ca         1 30Z      -0.120500
      4 C20         -5.7560     0.3610    -0.5610 ca         1 30Z       0.039600
      5 O23         -7.1110     0.3260    -0.7640 oh         1 30Z      -0.559100
      6 C21         -4.8830    -0.1440    -1.5380 ca         1 30Z      -0.156500
      7 C22         -3.4930    -0.1060    -1.3240 ca         1 30Z      -0.110500
      8 C17         -2.9670     0.4360    -0.1340 ca         1 30Z      -0.068300
      9 C15         -1.4570     0.4730     0.0910 c3         1 30Z      -0.030600
     10 C14         -0.8000    -0.9330     0.2750 c3         1 30Z      -0.054200
     11 C16         -1.5310    -1.7260     1.3980 c3         1 30Z      -0.087600
     12 C12          0.7570    -0.8610     0.5120 c3         1 30Z      -0.054200
     13 C13          1.3900    -2.2710     0.7050 c3         1 30Z      -0.087600
     14 C11          1.5120    -0.0800    -0.6110 c3         1 30Z      -0.030600
     15 C3           3.0250    -0.0000    -0.4140 ca         1 30Z      -0.068300
     16 C2           3.8970    -0.6690    -1.2970 ca         1 30Z      -0.110500
     17 C4           3.5610     0.7470     0.6540 ca         1 30Z      -0.120500
     18 C5           4.9510     0.8190     0.8360 ca         1 30Z       0.123100
     19 O9           5.4740     1.5400     1.8690 oh         1 30Z      -0.536100
     20 C6           5.8200     0.1470    -0.0470 ca         1 30Z       0.039600
     21 C1           5.2900    -0.5970    -1.1150 ca         1 30Z      -0.156500
     22 O7           7.1760     0.2190     0.1350 oh         1 30Z      -0.559100
     23 H25         -6.9930     1.2630     1.2080 ho         1 30Z       0.481000
     24 H18         -3.4580     1.3670     1.7660 ha         1 30Z       0.129500
     25 H23         -7.2900    -0.0840    -1.6400 ho         1 30Z       0.473000
     26 H21         -5.2710    -0.5670    -2.4620 ha         1 30Z       0.112000
     27 H22         -2.8220    -0.4980    -2.0860 ha         1 30Z       0.114500
     28 H151        -1.0170     0.9780    -0.7740 hc         1 30Z       0.047950
     29 H152        -1.2160     1.0950     0.9630 hc         1 30Z       0.047950
     30 H14         -0.9600    -1.4870    -0.6590 hc         1 30Z       0.048700
     31 H161        -1.3390    -1.2770     2.3800 hc         1 30Z       0.035033
     32 H162        -2.6150    -1.7440     1.2390 hc         1 30Z       0.035033
     33 H163        -1.2130    -2.7730     1.4250 hc         1 30Z       0.035033
     34 H12          0.9170    -0.3120     1.4490 hc         1 30Z       0.048700
     35 H131         2.4760    -2.2120     0.8390 hc         1 30Z       0.035033
     36 H132         1.0020    -2.7670     1.6020 hc         1 30Z       0.035033
     37 H133         1.1880    -2.9110    -0.1620 hc         1 30Z       0.035033
     38 H111         1.2780    -0.5370    -1.5810 hc         1 30Z       0.047950
     39 H112         1.1420     0.9490    -0.6620 hc         1 30Z       0.047950
     40 H2           3.4950    -1.2490    -2.1250 ha         1 30Z       0.114500
     41 H4           2.9020     1.2710     1.3410 ha         1 30Z       0.129500
     42 H1           5.9480    -1.1210    -1.8050 ha         1 30Z       0.112000
     43 H9           6.4500     1.4450     1.7940 ho         1 30Z       0.481000
     44 H7           7.6190    -0.3050    -0.5690 ho         1 30Z       0.473000
@<TRIPOS>BOND
     1     1     2 1   
     2     1    23 1   
     3     2     3 ar  
     4     2     4 ar  
     5     3     8 ar  
     6     3    24 1   
     7     4     5 1   
     8     4     6 ar  
     9     5    25 1   
    10     6     7 ar  
    11     6    26 1   
    12     7     8 ar  
    13     7    27 1   
    14     8     9 1   
    15     9    10 1   
    16     9    28 1   
    17     9    29 1   
    18    10    11 1   
    19    10    12 1   
    20    10    30 1   
    21    11    31 1   
    22    11    32 1   
    23    11    33 1   
    24    12    13 1   
    25    12    14 1   
    26    12    34 1   
    27    13    35 1   
    28    13    36 1   
    29    13    37 1   
    30    14    15 1   
    31    14    38 1   
    32    14    39 1   
    33    15    16 ar  
    34    15    17 ar  
    35    16    21 ar  
    36    16    40 1   
    37    17    18 ar  
    38    17    41 1   
    39    18    19 1   
    40    18    20 ar  
    41    19    43 1   
    42    20    21 ar  
    43    20    22 1   
    44    21    42 1   
    45    22    44 1   
@<TRIPOS>SUBSTRUCTURE
     1 30Z         1 TEMP              0 ****  ****    0 ROOT
