@<TRIPOS>MOLECULE
30Z
   44    45     1     0     0
SMALL
bcc


@<TRIPOS>ATOM
      1 O25         -6.0720     0.8570     1.5950 oh         1 30Z      -0.497100
      2 C19         -5.1270     0.7260     0.6380 ca         1 30Z       0.123100
      3 C18         -3.7960     0.6290     1.0200 ca         1 30Z      -0.138500
      4 C20         -5.4590     0.6840    -0.7200 ca         1 30Z       0.039600
      5 O23         -6.7770     0.7860    -1.0210 oh         1 30Z      -0.520100
      6 C21         -4.4520     0.5480    -1.6630 ca         1 30Z      -0.174500
      7 C22         -3.1240     0.4510    -1.2660 ca         1 30Z      -0.128500
      8 C17         -2.7770     0.4880     0.0800 ca         1 30Z      -0.068300
      9 C15         -1.3400     0.3580     0.5010 c3         1 30Z      -0.030600
     10 C14         -0.7930    -1.0810     0.4150 c3         1 30Z      -0.054200
     11 C16         -1.4940    -1.9530     1.4510 c3         1 30Z      -0.087600
     12 C12          0.7430    -1.0850     0.5570 c3         1 30Z      -0.054200
     13 C13          1.3120    -2.4630     0.8810 c3         1 30Z      -0.087600
     14 C11          1.4050    -0.5420    -0.7240 c3         1 30Z      -0.030600
     15 C3           2.8680    -0.2350    -0.5630 ca         1 30Z      -0.068300
     16 C2           3.8490    -1.0460    -1.1180 ca         1 30Z      -0.128500
     17 C4           3.2700     0.8760     0.1790 ca         1 30Z      -0.138500
     18 C5           4.6090     1.1740     0.3680 ca         1 30Z       0.123100
     19 O9           4.9410     2.2640     1.0950 oh         1 30Z      -0.497100
     20 C6           5.5870     0.3450    -0.1980 ca         1 30Z       0.039600
     21 C1           5.1980    -0.7580    -0.9370 ca         1 30Z      -0.174500
     22 O7           6.8770     0.6970     0.0270 oh         1 30Z      -0.520100
     23 H25         -6.9500     0.8900     1.1970 ho         1 30Z       0.442000
     24 H18         -3.5590     0.6650     2.0780 ha         1 30Z       0.147500
     25 H23         -6.9140     0.7550    -1.9740 ho         1 30Z       0.434000
     26 H21         -4.7030     0.5220    -2.7170 ha         1 30Z       0.130000
     27 H22         -2.3540     0.3540    -2.0210 ha         1 30Z       0.132500
     28 H151        -0.7380     1.0270    -0.1180 hc         1 30Z       0.047950
     29 H152        -1.2190     0.7080     1.5310 hc         1 30Z       0.047950
     30 H14         -1.0330    -1.4810    -0.5790 hc         1 30Z       0.048700
     31 H161        -1.2260    -1.6480     2.4660 hc         1 30Z       0.035033
     32 H162        -2.5780    -1.8680     1.3600 hc         1 30Z       0.035033
     33 H163        -1.2440    -3.0070     1.3410 hc         1 30Z       0.035033
     34 H12          1.0000    -0.4120     1.3860 hc         1 30Z       0.048700
     35 H131         2.4020    -2.4330     0.9180 hc         1 30Z       0.035033
     36 H132         0.9690    -2.8360     1.8460 hc         1 30Z       0.035033
     37 H133         1.0300    -3.1940     0.1190 hc         1 30Z       0.035033
     38 H111         1.2720    -1.2800    -1.5220 hc         1 30Z       0.047950
     39 H112         0.8860     0.3610    -1.0530 hc         1 30Z       0.047950
     40 H2           3.5660    -1.9170    -1.6960 ha         1 30Z       0.132500
     41 H4           2.5260     1.5290     0.6230 ha         1 30Z       0.147500
     42 H1           5.9520    -1.4030    -1.3770 ha         1 30Z       0.130000
     43 H9           5.8990     2.3580     1.1430 ho         1 30Z       0.442000
     44 H7           7.4780     0.0470    -0.3520 ho         1 30Z       0.434000
@<TRIPOS>BOND
     1     1     2 1   
     2     1    23 1   
     3     2     3 ar  
     4     2     4 ar  
     5     3     8 ar  
     6     3    24 1   
     7     4     5 1   
     8     4     6 ar  
     9     5    25 1   
    10     6     7 ar  
    11     6    26 1   
    12     7     8 ar  
    13     7    27 1   
    14     8     9 1   
    15     9    10 1   
    16     9    28 1   
    17     9    29 1   
    18    10    11 1   
    19    10    12 1   
    20    10    30 1   
    21    11    31 1   
    22    11    32 1   
    23    11    33 1   
    24    12    13 1   
    25    12    14 1   
    26    12    34 1   
    27    13    35 1   
    28    13    36 1   
    29    13    37 1   
    30    14    15 1   
    31    14    38 1   
    32    14    39 1   
    33    15    16 ar  
    34    15    17 ar  
    35    16    21 ar  
    36    16    40 1   
    37    17    18 ar  
    38    17    41 1   
    39    18    19 1   
    40    18    20 ar  
    41    19    43 1   
    42    20    21 ar  
    43    20    22 1   
    44    21    42 1   
    45    22    44 1   
@<TRIPOS>SUBSTRUCTURE
     1 30Z         1 TEMP              0 ****  ****    0 ROOT
