@<TRIPOS>MOLECULE
310
   58    61     1     0     0
SMALL
No Charge or Current Charge


@<TRIPOS>ATOM
      1 C23          4.9110     1.3640    -1.4890 ca         1 310      -0.068000
      2 C22          4.3260     0.3640    -0.6890 ca         1 310      -0.027000
      3 C21          4.5080     3.7790     1.5680 c2         1 310       0.655800
      4 C20          2.4700     2.4470     1.2320 c          1 310       0.598100
      5 C24          6.2730     1.6830    -1.3470 ca         1 310      -0.108000
      6 C26          6.4870    -0.0070     0.3870 ca         1 310      -0.114000
      7 C27          5.1260    -0.3270     0.2480 ca         1 310       0.125000
      8 C18          2.9040     0.0750    -0.8450 cc         1 310      -0.112000
      9 C10         -2.8970    -1.1120     0.2250 ca         1 310      -0.118500
     10 C7          -5.8280    -0.5000    -0.8510 ca         1 310      -0.180500
     11 C5          -6.7940    -0.9930     1.3200 ca         1 310      -0.180500
     12 C6          -5.7610    -0.4420     0.5510 ca         1 310       0.166100
     13 C1          -9.2300    -2.4710    -2.8910 c3         1 310      -0.195100
     14 C3          -7.9590    -1.6990    -0.7150 ca         1 310      -0.214600
     15 C4          -7.8840    -1.6210     0.6950 ca         1 310      -0.029000
     16 C11         -1.5600    -1.1770    -0.2060 ca         1 310      -0.093000
     17 C12         -0.7190    -0.0510    -0.1030 ca         1 310      -0.015000
     18 C13         -1.2400     1.1480     0.4250 ca         1 310      -0.093000
     19 C14         -2.5770     1.2150     0.8560 ca         1 310      -0.118500
     20 C15          0.6690    -0.1330    -0.5620 cc         1 310      -0.116000
     21 C16          1.0040    -0.6850    -1.7720 cd         1 310      -0.154000
     22 C17          2.3970    -0.5520    -1.9490 cd         1 310      -0.147000
     23 O1         -10.0420    -2.8680    -0.6840 o          1 310      -0.530100
     24 C8          -6.9160    -1.1270    -1.4830 ca         1 310      -0.029000
     25 C9          -3.4090     0.0900     0.7500 ca         1 310       0.092100
     26 N1           1.8450     0.3530     0.0250 na         1 310       0.056000
     27 C19          1.9710     1.0050     1.3400 c3         1 310      -0.028400
     28 O3           1.7460     3.3520     0.8420 o          1 310      -0.508100
     29 N2           3.7740     2.6370     1.6250 ns         1 310      -0.448400
     30 N3           4.4450     4.6650     0.6810 n2         1 310      -0.815100
     31 N4           5.4850     3.6940     2.4760 nv         1 310      -1.083200
     32 C25          7.0610     1.0000    -0.4070 ca         1 310      -0.094000
     33 Cl1          4.4540    -1.6180     1.2450 cl         1 310      -0.203000
     34 H23          4.3040     1.9010    -2.2140 ha         1 310       0.139000
     35 H24          6.7150     2.4620    -1.9640 ha         1 310       0.125000
     36 H26          7.0980    -0.5430     1.1100 ha         1 310       0.129000
     37 H10         -3.5280    -1.9950     0.1540 ha         1 310       0.131500
     38 H7          -5.0410    -0.0560    -1.4550 ha         1 310       0.131500
     39 H5          -6.7480    -0.9370     2.4040 ha         1 310       0.131500
     40 H1          -8.3230    -2.9510    -3.2730 hc         1 310       0.060700
     41 H1A        -10.1320    -2.9910    -3.2340 hc         1 310       0.060700
     42 H1B         -9.1670    -1.4620    -3.3120 hc         1 310       0.060700
     43 H4          -8.6720    -2.0470     1.3150 ha         1 310       0.125000
     44 H11         -1.1720    -2.1100    -0.6090 ha         1 310       0.131000
     45 H13         -0.6170     2.0350     0.4870 ha         1 310       0.131000
     46 H14         -2.9710     2.1420     1.2630 ha         1 310       0.131500
     47 H16          0.3140    -1.1310    -2.4820 ha         1 310       0.135000
     48 H17          2.9680    -0.8910    -2.8090 ha         1 310       0.138000
     49 H8          -6.9330    -1.1560    -2.5700 ha         1 310       0.125000
     50 H19          2.6650     0.4290     1.9600 h1         1 310       0.081200
     51 H19A         1.0040     1.0130     1.8530 h1         1 310       0.081200
     52 HN2          4.2660     1.8250     1.9580 hn         1 310       0.319500
     53 HN3          5.2020     5.3380     0.8400 hn         1 310       0.385400
     54 HN4          5.1950     3.2730     3.3520 hn         1 310       0.460500
     55 HN4A         6.0340     4.5370     2.5940 hn         1 310       0.460500
     56 H25          8.1150     1.2470    -0.2960 ha         1 310       0.119000
     57 O2          -4.7110     0.1780     1.1900 os         1 310      -0.252200
     58 C2          -9.1460    -2.3830    -1.3660 c          1 310       0.588700
@<TRIPOS>BOND
     1     1     2 ar  
     2     1     5 ar  
     3     1    34 1   
     4     2     7 ar  
     5     2     8 1   
     6     3    29 1   
     7     3    30 2   
     8     3    31 1   
     9     4    27 1   
    10     4    28 2   
    11     4    29 1   
    12     5    32 ar  
    13     5    35 1   
    14     6     7 ar  
    15     6    32 ar  
    16     6    36 1   
    17     7    33 1   
    18     8    22 2   
    19     8    26 1   
    20     9    16 ar  
    21     9    25 ar  
    22     9    37 1   
    23    10    12 ar  
    24    10    24 ar  
    25    10    38 1   
    26    11    12 ar  
    27    11    15 ar  
    28    11    39 1   
    29    12    57 1   
    30    13    40 1   
    31    13    41 1   
    32    13    42 1   
    33    13    58 1   
    34    14    15 ar  
    35    14    24 ar  
    36    14    58 1   
    37    15    43 1   
    38    16    17 ar  
    39    16    44 1   
    40    17    18 ar  
    41    17    20 1   
    42    18    19 ar  
    43    18    45 1   
    44    19    25 ar  
    45    19    46 1   
    46    20    21 2   
    47    20    26 1   
    48    21    22 1   
    49    21    47 1   
    50    22    48 1   
    51    23    58 2   
    52    24    49 1   
    53    25    57 1   
    54    26    27 1   
    55    27    50 1   
    56    27    51 1   
    57    29    52 1   
    58    30    53 1   
    59    31    54 1   
    60    31    55 1   
    61    32    56 1   
@<TRIPOS>SUBSTRUCTURE
     1 310         1 TEMP              0 ****  ****    0 ROOT
