@<TRIPOS>MOLECULE
310
   58    61     1     0     0
SMALL
bcc


@<TRIPOS>ATOM
      1 C23          4.8430     1.2590    -1.6640 ca         1 310      -0.086000
      2 C22          4.4570     0.1350    -0.9350 ca         1 310      -0.027000
      3 C21          2.9910     4.2090     1.6300 c2         1 310       0.655800
      4 C20          2.2690     2.0950     0.5450 c          1 310       0.665100
      5 C24          6.0960     1.8290    -1.4990 ca         1 310      -0.126000
      6 C26          6.6320     0.1620     0.1500 ca         1 310      -0.132000
      7 C27          5.3770    -0.3970    -0.0310 ca         1 310       0.033400
      8 C18          3.1280    -0.4610    -1.1380 cc         1 310      -0.061300
      9 C10         -2.2850    -1.9890     0.7770 ca         1 310      -0.136500
     10 C7          -5.2010    -0.8260    -0.5080 ca         1 310      -0.198500
     11 C5          -6.4490    -0.8240     1.5600 ca         1 310      -0.198500
     12 C6          -5.2290    -0.7990     0.8830 ca         1 310       0.166100
     13 C1          -8.8760    -0.9780    -2.7900 c3         1 310      -0.195100
     14 C3          -7.6240    -0.9040    -0.5520 ca         1 310      -0.214600
     15 C4          -7.6270    -0.8760     0.8470 ca         1 310      -0.047000
     16 C11         -1.0180    -2.0080     0.2160 ca         1 310      -0.111000
     17 C12         -0.3410    -0.8230    -0.0790 ca         1 310      -0.015000
     18 C13         -0.9710     0.3900     0.2090 ca         1 310      -0.111000
     19 C14         -2.2330     0.4210     0.7800 ca         1 310      -0.136500
     20 C15          0.9720    -0.8860    -0.7240 cc         1 310      -0.065300
     21 C16          1.3300    -1.5930    -1.8490 cd         1 310      -0.172000
     22 C17          2.6890    -1.3160    -2.1150 cd         1 310      -0.165000
     23 O1          -9.9670    -0.9890    -0.6820 o          1 310      -0.530100
     24 C8          -6.3960    -0.8780    -1.2080 ca         1 310      -0.047000
     25 C9          -2.8810    -0.7710     1.0620 ca         1 310       0.092100
     26 N1           2.0820    -0.2040    -0.2930 na         1 310      -0.016100
     27 C19          2.2010     0.6080     0.8820 c3         1 310      -0.057700
     28 O3           1.8100     2.5370    -0.4820 o          1 310      -0.508100
     29 N2           2.8490     2.8190     1.5400 ns         1 310      -0.515400
     30 N3           2.8050     4.9580     0.6230 n2         1 310      -0.815100
     31 N4           3.4110     4.5800     2.8810 nv         1 310      -0.972800
     32 C25          6.9890     1.2790    -0.5900 ca         1 310      -0.112000
     33 CL1          4.9420    -1.7950     0.8980 cl         1 310      -0.111400
     34 H23          4.1410     1.6900    -2.3650 ha         1 310       0.157000
     35 H24          6.3720     2.7010    -2.0750 ha         1 310       0.143000
     36 H26          7.3240    -0.2730     0.8590 ha         1 310       0.147000
     37 H10         -2.7960    -2.9160     1.0030 ha         1 310       0.149500
     38 H7          -4.2690    -0.8050    -1.0560 ha         1 310       0.149500
     39 H5          -6.4630    -0.8030     2.6420 ha         1 310       0.149500
     40 H1          -8.3240    -1.8460    -3.1550 hc         1 310       0.060700
     41 H1A         -9.8860    -1.0110    -3.1920 hc         1 310       0.060700
     42 H1B         -8.3710    -0.0920    -3.1780 hc         1 310       0.060700
     43 H4          -8.5650    -0.8950     1.3840 ha         1 310       0.143000
     44 H11         -0.5440    -2.9590     0.0110 ha         1 310       0.149000
     45 H13         -0.4910     1.3260    -0.0450 ha         1 310       0.149000
     46 H14         -2.7110     1.3680     0.9960 ha         1 310       0.149500
     47 H16          0.6670    -2.2170    -2.4280 ha         1 310       0.153000
     48 H17          3.2890    -1.7030    -2.9240 ha         1 310       0.156000
     49 H8          -6.3450    -0.8970    -2.2880 ha         1 310       0.143000
     50 H19          3.0690     0.2950     1.4650 h1         1 310       0.081200
     51 H19A         1.3360     0.4450     1.5280 h1         1 310       0.081200
     52 HN2          3.2080     2.2920     2.3220 hn         1 310       0.319500
     53 HN3          2.9190     5.9310     0.8880 hn         1 310       0.385400
     54 HN4          3.0890     4.0360     3.6670 hn         1 310       0.405300
     55 HN4A         3.3970     5.5700     3.0690 hn         1 310       0.405300
     56 H25          7.9690     1.7160    -0.4530 ha         1 310       0.137000
     57 O2          -4.1200    -0.7420     1.6570 os         1 310      -0.252200
     58 C2          -8.9130    -0.9590    -1.2850 c          1 310       0.588700
@<TRIPOS>BOND
     1     1     2 ar  
     2     1     5 ar  
     3     1    34 1   
     4     2     7 ar  
     5     2     8 1   
     6     3    29 1   
     7     3    30 2   
     8     3    31 1   
     9     4    27 1   
    10     4    28 2   
    11     4    29 1   
    12     5    32 ar  
    13     5    35 1   
    14     6     7 ar  
    15     6    32 ar  
    16     6    36 1   
    17     7    33 1   
    18     8    22 2   
    19     8    26 1   
    20     9    16 ar  
    21     9    25 ar  
    22     9    37 1   
    23    10    12 ar  
    24    10    24 ar  
    25    10    38 1   
    26    11    12 ar  
    27    11    15 ar  
    28    11    39 1   
    29    12    57 1   
    30    13    40 1   
    31    13    41 1   
    32    13    42 1   
    33    13    58 1   
    34    14    15 ar  
    35    14    24 ar  
    36    14    58 1   
    37    15    43 1   
    38    16    17 ar  
    39    16    44 1   
    40    17    18 ar  
    41    17    20 1   
    42    18    19 ar  
    43    18    45 1   
    44    19    25 ar  
    45    19    46 1   
    46    20    21 2   
    47    20    26 1   
    48    21    22 1   
    49    21    47 1   
    50    22    48 1   
    51    23    58 2   
    52    24    49 1   
    53    25    57 1   
    54    26    27 1   
    55    27    50 1   
    56    27    51 1   
    57    29    52 1   
    58    30    53 1   
    59    31    54 1   
    60    31    55 1   
    61    32    56 1   
@<TRIPOS>SUBSTRUCTURE
     1 310         1 TEMP              0 ****  ****    0 ROOT
