@<TRIPOS>MOLECULE
311
   47    49     1     0     0
SMALL
No Charge or Current Charge


@<TRIPOS>ATOM
      1 C13         -2.0160    -1.3230    -0.0430 c6         1 311       0.108000
      2 C18          4.9190     0.3140     0.5390 ca         1 311       0.160000
      3 C17         -1.0520     1.6120    -0.0540 ca         1 311       0.310500
      4 C16          1.2900     1.3720    -0.1900 cp         1 311       0.406500
      5 C15          2.4920     0.5450     0.1870 cp         1 311      -0.125500
      6 C19         -2.4090     1.1490     0.5080 c          1 311       0.516600
      7 C20         -3.0320    -1.9860    -1.0230 c6         1 311      -0.073000
      8 C11         -4.2900    -2.4540    -0.2270 c6         1 311      -0.067400
      9 C12         -3.8140    -0.6950     1.5480 c6         1 311       0.090000
     10 C2          -2.3660    -3.2150    -1.7110 c3         1 311      -0.084600
     11 C3          -3.4210    -0.9880    -2.1610 c3         1 311      -0.084600
     12 C4           0.2250     3.2610    -1.3100 ca         1 311      -0.080000
     13 C5           1.3830     2.5360    -0.9920 ca         1 311      -0.140000
     14 C6          -1.0050     2.7940    -0.8250 ca         1 311      -0.119000
     15 C7           3.4780    -1.5960     0.9210 ca         1 311      -0.097000
     16 C8           2.3610    -0.8190     0.5690 ca         1 311      -0.084000
     17 C9           3.8050     1.0910     0.1850 ca         1 311      -0.135000
     18 C10         -4.8930    -1.3180     0.6340 c6         1 311      -0.099400
     19 C14          4.7680    -1.0360     0.9080 ca         1 311      -0.100300
     20 N21          0.0930     0.9410     0.2680 nb         1 311      -0.664000
     21 N22         -2.6330    -0.2320     0.7690 n          1 311      -0.379800
     22 O23         -3.2820     1.9700     0.7870 o          1 311      -0.598100
     23 F24          6.1470     0.8800     0.5250 f          1 311      -0.182000
     24 H13         -1.6200    -2.0840     0.6450 h1         1 311       0.058200
     25 H13A        -1.1680    -0.9590    -0.6340 h1         1 311       0.058200
     26 H11         -5.0540    -2.8440    -0.9140 hc         1 311       0.041700
     27 H11A        -4.0180    -3.2900     0.4330 hc         1 311       0.041700
     28 H12         -4.2500     0.1320     2.1260 h1         1 311       0.061700
     29 H12A        -3.4800    -1.4480     2.2770 h1         1 311       0.061700
     30 H1           6.4930    -1.4540     2.1610 hc         1 311       0.049033
     31 H1A          5.6960    -2.9080     1.5440 hc         1 311       0.049033
     32 H1B          6.7000    -1.9280     0.4660 hc         1 311       0.049033
     33 H2          -2.0540    -3.9650    -0.9730 hc         1 311       0.036200
     34 H2A         -3.0550    -3.7080    -2.4080 hc         1 311       0.036200
     35 H2B         -1.4740    -2.9240    -2.2780 hc         1 311       0.036200
     36 H3          -2.5420    -0.6890    -2.7450 hc         1 311       0.036200
     37 H3A         -4.1410    -1.4360    -2.8570 hc         1 311       0.036200
     38 H3B         -3.8730    -0.0690    -1.7710 hc         1 311       0.036200
     39 H4           0.2790     4.1610    -1.9200 ha         1 311       0.124000
     40 H5           2.3410     2.8690    -1.3760 ha         1 311       0.127000
     41 H6          -1.9200     3.3350    -1.0500 ha         1 311       0.140000
     42 H7           3.3370    -2.6360     1.2040 ha         1 311       0.117000
     43 H8           1.3790    -1.2880     0.5870 ha         1 311       0.139000
     44 H9           3.9710     2.1320    -0.0750 ha         1 311       0.129000
     45 H10         -5.3320    -0.5410    -0.0060 hc         1 311       0.051200
     46 H10A        -5.7150    -1.7110     1.2480 hc         1 311       0.051200
     47 C1           5.9790    -1.8790     1.2910 c3         1 311      -0.042800
@<TRIPOS>BOND
     1     1     7 1   
     2     1    21 1   
     3     1    24 1   
     4     1    25 1   
     5     2    17 ar  
     6     2    19 ar  
     7     2    23 1   
     8     3     6 1   
     9     3    14 ar  
    10     3    20 ar  
    11     4     5 1   
    12     4    13 ar  
    13     4    20 ar  
    14     5    16 ar  
    15     5    17 ar  
    16     6    21 1   
    17     6    22 2   
    18     7     8 1   
    19     7    10 1   
    20     7    11 1   
    21     8    18 1   
    22     8    26 1   
    23     8    27 1   
    24     9    18 1   
    25     9    21 1   
    26     9    28 1   
    27     9    29 1   
    28    10    33 1   
    29    10    34 1   
    30    10    35 1   
    31    11    36 1   
    32    11    37 1   
    33    11    38 1   
    34    12    13 ar  
    35    12    14 ar  
    36    12    39 1   
    37    13    40 1   
    38    14    41 1   
    39    15    16 ar  
    40    15    19 ar  
    41    15    42 1   
    42    16    43 1   
    43    17    44 1   
    44    18    45 1   
    45    18    46 1   
    46    19    47 1   
    47    30    47 1   
    48    31    47 1   
    49    32    47 1   
@<TRIPOS>SUBSTRUCTURE
     1 311         1 TEMP              0 ****  ****    0 ROOT
