@<TRIPOS>MOLECULE
311
   47    49     1     0     0
SMALL
bcc


@<TRIPOS>ATOM
      1 C13         -2.0310    -1.3870    -0.1160 c6         1 311       0.108000
      2 C18          4.8680     0.2610     0.3250 ca         1 311       0.124900
      3 C17         -1.0230     1.3490     0.0620 ca         1 311       0.375800
      4 C16          1.2520     1.1660    -0.1800 cp         1 311       0.471800
      5 C15          2.4830     0.4610     0.2390 cp         1 311      -0.125500
      6 C19         -2.2610     0.9100     0.7980 c          1 311       0.583600
      7 C20         -3.0770    -1.8040    -1.1600 c6         1 311      -0.073000
      8 C11         -4.3380    -2.2870    -0.4300 c6         1 311      -0.067400
      9 C12         -3.7130    -0.8850     1.5550 c6         1 311       0.090000
     10 C2          -2.4860    -2.9450    -1.9840 c3         1 311      -0.084600
     11 C3          -3.3970    -0.6290    -2.0840 c3         1 311      -0.084600
     12 C4           0.0660     2.8070    -1.4600 ca         1 311      -0.098000
     13 C5           1.2590     2.1890    -1.1290 ca         1 311      -0.223300
     14 C6          -1.1060     2.3980    -0.8430 ca         1 311      -0.202300
     15 C7           3.5490    -1.3940     1.3620 ca         1 311      -0.115000
     16 C8           2.4010    -0.7240     0.9690 ca         1 311      -0.102000
     17 C9           3.7490     0.9550    -0.0800 ca         1 311      -0.153000
     18 C10         -4.8370    -1.2880     0.6110 c6         1 311      -0.099400
     19 C14          4.8200    -0.9210     1.0510 ca         1 311      -0.100300
     20 N21          0.1170     0.7600     0.3850 nb         1 311      -0.664000
     21 N22         -2.5610    -0.3990     0.8080 n          1 311      -0.446800
     22 O23         -2.9170     1.7670     1.3780 o          1 311      -0.598100
     23 F24          6.0750     0.7590     0.0030 f          1 311      -0.146900
     24 H13         -1.7220    -2.2630     0.4650 h1         1 311       0.058200
     25 H13A        -1.1410    -1.0140    -0.6150 h1         1 311       0.058200
     26 H11         -5.1260    -2.5020    -1.1580 hc         1 311       0.041700
     27 H11A        -4.1100    -3.2340     0.0720 hc         1 311       0.041700
     28 H12         -4.0390    -0.1270     2.2620 h1         1 311       0.061700
     29 H12A        -3.3870    -1.7570     2.1320 h1         1 311       0.061700
     30 H1           6.7330    -0.9920     2.0410 hc         1 311       0.049033
     31 H1A          5.8280    -2.5020     2.0780 hc         1 311       0.049033
     32 H1B          6.6330    -1.9880     0.5980 hc         1 311       0.049033
     33 H2          -2.2400    -3.8040    -1.3570 hc         1 311       0.036200
     34 H2A         -3.1930    -3.2820    -2.7450 hc         1 311       0.036200
     35 H2B         -1.5730    -2.6320    -2.4970 hc         1 311       0.036200
     36 H3          -2.4880    -0.2360    -2.5480 hc         1 311       0.036200
     37 H3A         -4.0670    -0.9440    -2.8860 hc         1 311       0.036200
     38 H3B         -3.8840     0.1980    -1.5660 hc         1 311       0.036200
     39 H4           0.0510     3.6000    -2.1950 ha         1 311       0.142000
     40 H5           2.1730     2.4950    -1.6170 ha         1 311       0.145000
     41 H6          -2.0540     2.8660    -1.0700 ha         1 311       0.158000
     42 H7           3.4570    -2.3130     1.9270 ha         1 311       0.135000
     43 H8           1.4320    -1.1260     1.2260 ha         1 311       0.157000
     44 H9           3.8820     1.8770    -0.6300 ha         1 311       0.147000
     45 H10         -5.2480    -0.3960     0.1310 hc         1 311       0.051200
     46 H10A        -5.6490    -1.7300     1.1930 hc         1 311       0.051200
     47 C1           6.0690    -1.6370     1.4640 c3         1 311      -0.042800
@<TRIPOS>BOND
     1     1     7 1   
     2     1    21 1   
     3     1    24 1   
     4     1    25 1   
     5     2    17 ar  
     6     2    19 ar  
     7     2    23 1   
     8     3     6 1   
     9     3    14 ar  
    10     3    20 ar  
    11     4     5 1   
    12     4    13 ar  
    13     4    20 ar  
    14     5    16 ar  
    15     5    17 ar  
    16     6    21 1   
    17     6    22 2   
    18     7     8 1   
    19     7    10 1   
    20     7    11 1   
    21     8    18 1   
    22     8    26 1   
    23     8    27 1   
    24     9    18 1   
    25     9    21 1   
    26     9    28 1   
    27     9    29 1   
    28    10    33 1   
    29    10    34 1   
    30    10    35 1   
    31    11    36 1   
    32    11    37 1   
    33    11    38 1   
    34    12    13 ar  
    35    12    14 ar  
    36    12    39 1   
    37    13    40 1   
    38    14    41 1   
    39    15    16 ar  
    40    15    19 ar  
    41    15    42 1   
    42    16    43 1   
    43    17    44 1   
    44    18    45 1   
    45    18    46 1   
    46    19    47 1   
    47    30    47 1   
    48    31    47 1   
    49    32    47 1   
@<TRIPOS>SUBSTRUCTURE
     1 311         1 TEMP              0 ****  ****    0 ROOT
