@<TRIPOS>MOLECULE
312
   55    58     1     0     0
SMALL
No Charge or Current Charge


@<TRIPOS>ATOM
      1 C1           5.9900    -0.2510     0.2050 ca         1 312      -0.289900
      2 C2           5.7700    -1.6590     0.1750 ca         1 312      -0.113000
      3 C3           4.4680    -2.1910     0.0810 ca         1 312      -0.131000
      4 C4           3.3980    -1.2940     0.0190 ca         1 312       0.014000
      5 C5           3.5880     0.0790     0.0480 ca         1 312      -0.022000
      6 C6           4.8740     0.6270     0.1400 ca         1 312      -0.099000
      7 C7           7.3740     0.2970     0.3040 ce         1 312       0.479400
      8 N1           8.3500    -0.4320     0.9250 nv         1 312      -0.609700
      9 N2           7.6600     1.5260    -0.2210 nv         1 312      -0.593800
     10 N3           2.0460    -1.5480    -0.0720 na         1 312      -0.283900
     11 N4           2.3630     0.7250    -0.0240 nc         1 312      -0.342600
     12 C8           1.4580    -0.3050    -0.0980 cc         1 312       0.274500
     13 C9           0.0650    -0.2370    -0.1820 cd         1 312      -0.287200
     14 C10         -0.4690     1.1040    -0.2090 cd         1 312      -0.067000
     15 C11         -1.8340     1.2950    -0.3230 cc         1 312      -0.101200
     16 CVX         -2.4580     2.6830    -0.3920 c3         1 312      -0.118500
     17 CWX         -2.1490     3.4320    -1.7210 c          1 312       0.746000
     18 OXX         -3.0810     3.6640    -2.4790 o          1 312      -0.736500
     19 OYX         -0.9850     3.6900    -2.0000 o          1 312      -0.736500
     20 C6X         -2.1090     3.5410     0.8650 c3         1 312      -0.160400
     21 C7X         -2.9960     4.8050     0.9280 c          1 312       0.732000
     22 O8X         -4.0890     4.7190     1.4700 o          1 312      -0.767000
     23 O9X         -2.5830     5.8350     0.4160 o          1 312      -0.767000
     24 C12         -2.7150     0.1540    -0.3660 cc         1 312      -0.045000
     25 C13         -2.2780    -1.1560    -0.2620 cd         1 312      -0.258400
     26 C14         -0.8140    -1.4420    -0.2570 c          1 312       0.583500
     27 O6          -0.3740    -2.5870    -0.3520 o          1 312      -0.771100
     28 C1B         -3.2620    -2.2630    -0.3740 ca         1 312       0.025200
     29 C2B         -3.2360    -3.3970     0.4860 ca         1 312       0.149100
     30 C3B         -4.1960    -4.4260     0.3210 ca         1 312      -0.222000
     31 C4B         -5.1820    -4.3270    -0.6710 ca         1 312      -0.115000
     32 C5B         -5.2320    -3.1970    -1.4960 ca         1 312      -0.159000
     33 C6B         -4.2860    -2.1710    -1.3440 ca         1 312      -0.085000
     34 O2B         -2.3310    -3.4290     1.5350 os         1 312      -0.298100
     35 CME         -2.2420    -4.5340     2.4490 c3         1 312       0.156900
     36 HC2          6.6100    -2.3490     0.2120 ha         1 312       0.078000
     37 HC3          4.3010    -3.2650     0.0550 ha         1 312       0.114000
     38 HC6          4.9940     1.7080     0.1730 ha         1 312       0.121000
     39 HH11         9.2130     0.0300     1.1790 hn         1 312       0.350250
     40 HH12         8.0670    -1.2440     1.4570 hn         1 312       0.350250
     41 HH21         6.9770     1.9410    -0.8400 hn         1 312       0.350250
     42 HH22         8.6280     1.7920    -0.3350 hn         1 312       0.350250
     43 HN3          1.5450    -2.4320    -0.1360 hn         1 312       0.424000
     44 H1           0.1790     1.9770    -0.1680 ha         1 312       0.217000
     45 H31B        -3.5480     2.5590    -0.3680 hc         1 312       0.046700
     46 H42A        -2.3250     2.8920     1.7240 hc         1 312       0.002700
     47 H42B        -1.0500     3.8130     0.7820 hc         1 312       0.002700
     48 HC4         -3.7810     0.3500    -0.4380 ha         1 312       0.166000
     49 H3B         -4.2040    -5.3000     0.9650 ha         1 312       0.088000
     50 H4B         -5.9170    -5.1210    -0.7900 ha         1 312       0.078000
     51 H5B         -6.0020    -3.1170    -2.2600 ha         1 312       0.092000
     52 H6B         -4.3320    -1.3140    -2.0110 ha         1 312       0.128000
     53 HME1        -1.4480    -4.3520     3.1850 h1         1 312       0.020700
     54 HME2        -3.1850    -4.6670     2.9930 h1         1 312       0.020700
     55 HME3        -2.0060    -5.4630     1.9150 h1         1 312       0.020700
@<TRIPOS>BOND
     1     1     2 ar  
     2     1     6 ar  
     3     1     7 1   
     4     2     3 ar  
     5     2    36 1   
     6     3     4 ar  
     7     3    37 1   
     8     4     5 ar  
     9     4    10 2   
    10     5     6 ar  
    11     5    11 2   
    12     6    38 1   
    13     7     8 2   
    14     7     9 1   
    15     8    39 1   
    16     8    40 1   
    17     9    41 1   
    18     9    42 1   
    19    10    12 1   
    20    10    43 1   
    21    11    12 1   
    22    12    13 2   
    23    13    14 1   
    24    13    26 1   
    25    14    15 2   
    26    14    44 1   
    27    15    16 1   
    28    15    24 1   
    29    16    17 1   
    30    16    20 1   
    31    16    45 1   
    32    17    18 1   
    33    17    19 1   
    34    20    21 1   
    35    20    46 1   
    36    20    47 1   
    37    21    22 1   
    38    21    23 1   
    39    24    25 2   
    40    24    48 1   
    41    25    26 1   
    42    25    28 1   
    43    26    27 2   
    44    28    29 ar  
    45    28    33 ar  
    46    29    30 ar  
    47    29    34 1   
    48    30    31 ar  
    49    30    49 1   
    50    31    32 ar  
    51    31    50 1   
    52    32    33 ar  
    53    32    51 1   
    54    33    52 1   
    55    34    35 1   
    56    35    53 1   
    57    35    54 1   
    58    35    55 1   
@<TRIPOS>SUBSTRUCTURE
     1 312         1 TEMP              0 ****  ****    0 ROOT
