@<TRIPOS>MOLECULE
312
   55    58     1     0     0
SMALL
abcg2


@<TRIPOS>ATOM
      1 C1           5.8870    -0.2850     0.0900 ca         1 312      -0.289900
      2 C2           5.7090    -1.6780     0.0160 ca         1 312      -0.113000
      3 C3           4.4470    -2.2320    -0.0980 ca         1 312      -0.131000
      4 C4           3.3690    -1.3560    -0.1230 ca         1 312       0.014000
      5 C5           3.5280     0.0480    -0.0460 ca         1 312      -0.022000
      6 C6           4.8010     0.5900     0.0550 ca         1 312      -0.099000
      7 C7           7.2420     0.2590     0.2070 ce         1 312       0.479400
      8 N1           8.1500    -0.4010     0.8900 nv         1 312      -0.609700
      9 N2           7.5370     1.4010    -0.3710 nv         1 312      -0.593800
     10 N3           2.0300    -1.5410    -0.2080 na         1 312      -0.283900
     11 N4           2.3110     0.6660    -0.0780 nc         1 312      -0.342600
     12 C8           1.4320    -0.3150    -0.1750 cc         1 312       0.274500
     13 C9          -0.0070    -0.1940    -0.2340 cd         1 312      -0.287200
     14 C10         -0.5820     1.0830    -0.2010 cd         1 312      -0.067000
     15 C11         -1.9470     1.2800    -0.2540 cc         1 312      -0.101200
     16 CVX         -2.5620     2.6600    -0.2240 c3         1 312      -0.118500
     17 CWX         -2.1280     3.4230    -1.4910 c          1 312       0.746000
     18 OXX         -2.7980     3.2220    -2.5260 o          1 312      -0.736500
     19 OYX         -1.1100     4.1410    -1.4040 o          1 312      -0.736500
     20 C6X         -2.2120     3.4130     1.0530 c3         1 312      -0.160400
     21 C7X         -2.7670     4.8410     1.1230 c          1 312       0.732000
     22 O8X         -3.7790     5.1020     0.4410 o          1 312      -0.767000
     23 O9X         -2.1820     5.6310     1.8970 o          1 312      -0.767000
     24 C12         -2.7450     0.1300    -0.3390 cc         1 312      -0.045000
     25 C13         -2.2290    -1.1510    -0.3630 cd         1 312      -0.258400
     26 C14         -0.8130    -1.3810    -0.3320 c          1 312       0.583500
     27 O6          -0.3290    -2.5540    -0.4050 o          1 312      -0.771100
     28 C1B         -3.1350    -2.3110    -0.4860 ca         1 312       0.025200
     29 C2B         -3.2320    -3.2720     0.5360 ca         1 312       0.149100
     30 C3B         -4.0910    -4.3580     0.3970 ca         1 312      -0.222000
     31 C4B         -4.8730    -4.4890    -0.7470 ca         1 312      -0.115000
     32 C5B         -4.8090    -3.5410    -1.7520 ca         1 312      -0.159000
     33 C6B         -3.9380    -2.4650    -1.6090 ca         1 312      -0.085000
     34 O2B         -2.4840    -3.0490     1.6330 os         1 312      -0.298100
     35 CME         -2.4930    -4.0100     2.6640 c3         1 312       0.156900
     36 HC2          6.5680    -2.3360     0.0150 ha         1 312       0.078000
     37 HC3          4.3160    -3.3030    -0.1680 ha         1 312       0.114000
     38 HC6          4.9320     1.6620     0.1370 ha         1 312       0.121000
     39 HH11         9.1110    -0.0980     0.9370 hn         1 312       0.350250
     40 HH12         7.8960    -1.2000     1.4460 hn         1 312       0.350250
     41 HH21         6.8940     1.8320    -1.0150 hn         1 312       0.350250
     42 HH22         8.4390     1.8380    -0.2650 hn         1 312       0.350250
     43 HN3          1.4300    -2.3710    -0.2860 hn         1 312       0.424000
     44 H1           0.0810     1.9390    -0.1430 ha         1 312       0.217000
     45 H31B        -3.6480     2.5360    -0.2660 hc         1 312       0.046700
     46 H42A        -2.6090     2.8570     1.9130 hc         1 312       0.002700
     47 H42B        -1.1300     3.4390     1.1950 hc         1 312       0.002700
     48 HC4         -3.8240     0.2490    -0.3740 ha         1 312       0.166000
     49 H3B         -4.1760    -5.1090     1.1710 ha         1 312       0.088000
     50 H4B         -5.5360    -5.3400    -0.8370 ha         1 312       0.078000
     51 H5B         -5.4170    -3.6360    -2.6420 ha         1 312       0.092000
     52 H6B         -3.8670    -1.7240    -2.3970 ha         1 312       0.128000
     53 HME1        -1.8010    -3.6550     3.4250 h1         1 312       0.020700
     54 HME2        -3.4810    -4.1230     3.1180 h1         1 312       0.020700
     55 HME3        -2.1560    -4.9910     2.3160 h1         1 312       0.020700
@<TRIPOS>BOND
     1     1     2 ar  
     2     1     6 ar  
     3     1     7 1   
     4     2     3 ar  
     5     2    36 1   
     6     3     4 ar  
     7     3    37 1   
     8     4     5 ar  
     9     4    10 2   
    10     5     6 ar  
    11     5    11 2   
    12     6    38 1   
    13     7     8 2   
    14     7     9 1   
    15     8    39 1   
    16     8    40 1   
    17     9    41 1   
    18     9    42 1   
    19    10    12 1   
    20    10    43 1   
    21    11    12 1   
    22    12    13 2   
    23    13    14 1   
    24    13    26 1   
    25    14    15 2   
    26    14    44 1   
    27    15    16 1   
    28    15    24 1   
    29    16    17 1   
    30    16    20 1   
    31    16    45 1   
    32    17    18 1   
    33    17    19 1   
    34    20    21 1   
    35    20    46 1   
    36    20    47 1   
    37    21    22 1   
    38    21    23 1   
    39    24    25 2   
    40    24    48 1   
    41    25    26 1   
    42    25    28 1   
    43    26    27 2   
    44    28    29 ar  
    45    28    33 ar  
    46    29    30 ar  
    47    29    34 1   
    48    30    31 ar  
    49    30    49 1   
    50    31    32 ar  
    51    31    50 1   
    52    32    33 ar  
    53    32    51 1   
    54    33    52 1   
    55    34    35 1   
    56    35    53 1   
    57    35    54 1   
    58    35    55 1   
@<TRIPOS>SUBSTRUCTURE
     1 312         1 TEMP              0 ****  ****    0 ROOT
