@<TRIPOS>MOLECULE
313
   16    14     1     0     0
SMALL
bcc


@<TRIPOS>ATOM
      1 O3          -2.2680    -0.7450     0.6500 o          1 313      -0.875800
      2 C2          -1.8470     0.1200    -0.1670 c          1 313       0.877600
      3 O1          -2.2040     0.1820    -1.3710 o          1 313      -0.875800
      4 C4          -0.7860     1.0600     0.2970 c2         1 313      -0.630000
      5 S5           1.1140     0.1910    -0.2340 s4         1 313      -0.077600
      6 C7           0.9760    -0.9200     1.1870 c3         1 313      -0.062800
      7 C6           3.0060    -0.3490    -0.4980 c3         1 313      -0.062800
      8 H4          -0.7460     1.9960    -0.2670 ha         1 313       0.053500
      9 H4A         -0.7930     1.2620     1.3720 ha         1 313       0.053500
     10 H7           1.4520    -0.4580     2.0480 h1         1 313       0.052533
     11 H7A         -0.0780    -1.0950     1.3810 h1         1 313       0.052533
     12 H7B          1.4930    -1.8450     0.9400 h1         1 313       0.052533
     13 H6           3.0460    -1.3760    -0.8640 h1         1 313       0.052533
     14 H6A          3.4100     0.3170    -1.2620 h1         1 313       0.052533
     15 H6B          3.6050    -0.2610     0.4100 h1         1 313       0.052533
     16 HS5          1.5900     1.3670     0.1870 hs         1 313       0.284000
@<TRIPOS>BOND
     1     1     2 1   
     2     2     3 1   
     3     2     4 2   
     4     4     8 1   
     5     4     9 1   
     6     5     6 1   
     7     5     7 1   
     8     5    16 1   
     9     6    10 1   
    10     6    11 1   
    11     6    12 1   
    12     7    13 1   
    13     7    14 1   
    14     7    15 1   
@<TRIPOS>SUBSTRUCTURE
     1 313         1 TEMP              0 ****  ****    0 ROOT
