@<TRIPOS>MOLECULE
313
   16    14     1     0     0
SMALL
No Charge or Current Charge


@<TRIPOS>ATOM
      1 O3          -2.5510     0.1590     0.5060 o          1 313      -0.770500
      2 C2          -1.8690     0.8240    -0.2420 c          1 313       0.667000
      3 O1          -2.0870     1.0250    -1.4150 o          1 313      -0.770500
      4 C4          -0.6800     1.3820     0.2960 c2         1 313      -0.730000
      5 S5           1.2370    -1.1310    -0.4820 s4         1 313      -0.077600
      6 C7           1.3380    -1.6130     1.3020 c3         1 313      -0.062800
      7 C6           2.6840     0.0210    -0.4870 c3         1 313      -0.062800
      8 H4          -0.0160     1.9960    -0.3070 ha         1 313       0.103500
      9 H4A         -0.4110     1.2480     1.3420 ha         1 313       0.103500
     10 H7           1.6310    -0.7450     1.9050 h1         1 313       0.052533
     11 H7A          0.3530    -1.9710     1.6260 h1         1 313       0.052533
     12 H7B          2.0790    -2.4140     1.4120 h1         1 313       0.052533
     13 H6           3.6040    -0.5640    -0.6080 h1         1 313       0.052533
     14 H6A          2.5760     0.7200    -1.3250 h1         1 313       0.052533
     15 H6B          2.7170     0.5810     0.4560 h1         1 313       0.052533
     16 HS5          0.3640    -0.0730    -0.1720 hs         1 313       0.284000
@<TRIPOS>BOND
     1     1     2 1   
     2     2     3 1   
     3     2     4 2   
     4     4     8 1   
     5     4     9 1   
     6     5     6 1   
     7     5     7 1   
     8     5    16 1   
     9     6    10 1   
    10     6    11 1   
    11     6    12 1   
    12     7    13 1   
    13     7    14 1   
    14     7    15 1   
@<TRIPOS>SUBSTRUCTURE
     1 313         1 TEMP              0 ****  ****    0 ROOT
