@<TRIPOS>MOLECULE
314
   89    92     1     0     0
SMALL
No Charge or Current Charge


@<TRIPOS>ATOM
      1 F1          26.9680    11.3340    18.5250 f          1 314      -0.176500
      2 F2          23.1970    14.2280    18.7090 f          1 314      -0.176500
      3 C1          26.4860    16.0310    24.1860 ca         1 314      -0.056000
      4 C2          26.7800    14.7250    23.7470 ca         1 314      -0.132600
      5 C3          25.7190    13.8180    23.5290 ca         1 314      -0.074000
      6 C4          24.3720    14.2200    23.6880 ca         1 314      -0.150600
      7 C5          24.1050    15.5460    24.0910 ca         1 314      -0.051000
      8 C6          25.1540    16.4470    24.3490 ca         1 314      -0.084300
      9 N1          28.5210    13.3210    22.5870 n          1 314      -0.403800
     10 O1          29.0930    14.7340    24.3130 o          1 314      -0.603100
     11 C8          29.8390    12.6320    22.6520 c3         1 314       0.094500
     12 C9          27.8550    13.3950    21.2520 c3         1 314       0.094500
     13 C10         28.6760    14.1140    20.1550 c3         1 314      -0.093900
     14 C11         28.9590    15.5980    20.4660 c3         1 314      -0.087600
     15 C12         29.9170    11.2580    21.9400 c3         1 314      -0.093900
     16 C13         28.9410    10.2080    22.5130 c3         1 314      -0.087600
     17 C14         24.8470    17.8670    24.8040 c3         1 314      -0.047800
     18 N2          23.5440    11.9500    23.2410 ns         1 314      -0.500900
     19 C16         22.6250    10.8980    22.7750 c3         1 314       0.081700
     20 C17         22.2400     9.9150    23.9310 c3         1 314       0.157300
     21 O3          21.4090     8.8470    23.4210 oh         1 314      -0.657000
     22 C19         23.8900    11.1060    20.5110 ca         1 314      -0.025300
     23 C20         25.1590    10.7990    19.9810 ca         1 314      -0.162500
     24 C21         25.7530    11.6420    19.0280 ca         1 314       0.194500
     25 C22         25.1000    12.8050    18.6010 ca         1 314      -0.193000
     26 C23         23.8360    13.1120    19.1210 ca         1 314       0.194500
     27 C24         23.2270    12.2680    20.0630 ca         1 314      -0.162500
     28 C25         21.5950    10.5940    25.1990 c6         1 314       0.138500
     29 C26         20.1810    11.1960    24.9330 c6         1 314      -0.117400
     30 C27         19.6010    11.8460    26.2170 c6         1 314      -0.050700
     31 C28         19.5880    10.8000    27.3640 c6         1 314      -0.113400
     32 C29         20.9960    10.1970    27.5760 c6         1 314       0.151800
     33 N3          21.5250     9.6150    26.3190 n7         1 314      -0.846400
     34 C30         18.2110    12.5180    25.9860 c3         1 314      -0.027100
     35 C31         17.0990    11.5770    25.5280 ca         1 314      -0.076300
     36 C32         16.2840    10.9230    26.4740 ca         1 314      -0.110000
     37 C33         15.2570    10.0610    26.0520 ca         1 314      -0.110500
     38 C34         15.0340     9.8510    24.6810 ca         1 314      -0.112000
     39 C35         15.8370    10.5050    23.7320 ca         1 314      -0.110500
     40 C36         16.8640    11.3670    24.1550 ca         1 314      -0.110000
     41 H1          27.2970    16.7300    24.3810 ha         1 314       0.126000
     42 H3          25.9580    12.8030    23.2230 ha         1 314       0.119000
     43 H5          23.0760    15.8780    24.2160 ha         1 314       0.133000
     44 H8          30.6010    13.2970    22.2250 h1         1 314       0.058450
     45 H8A         30.1040    12.4760    23.7070 h1         1 314       0.058450
     46 H9          27.6320    12.3760    20.9180 h1         1 314       0.058450
     47 H9A         26.8930    13.9140    21.3230 h1         1 314       0.058450
     48 H10         29.6250    13.5920    19.9860 hc         1 314       0.044700
     49 H10A        28.1180    14.0540    19.2130 hc         1 314       0.044700
     50 H11         29.5920    15.7000    21.3540 hc         1 314       0.034700
     51 H11A        29.4770    16.0720    19.6230 hc         1 314       0.034700
     52 H11B        28.0230    16.1430    20.6420 hc         1 314       0.034700
     53 H12         29.7420    11.3710    20.8640 hc         1 314       0.044700
     54 H12A        30.9400    10.8750    22.0430 hc         1 314       0.044700
     55 H13         29.0650     9.2500    21.9940 hc         1 314       0.034700
     56 H13A        29.1300    10.0470    23.5810 hc         1 314       0.034700
     57 H13B        27.9000    10.5280    22.3920 hc         1 314       0.034700
     58 H14         24.7730    17.9190    25.8960 hc         1 314       0.047367
     59 H14A        25.6290    18.5670    24.4870 hc         1 314       0.047367
     60 H14B        23.8980    18.2250    24.3860 hc         1 314       0.047367
     61 HN2         24.5190    11.7080    23.3570 hn         1 314       0.320500
     62 H16         21.7020    11.3800    22.4280 h1         1 314       0.083700
     63 H17         23.1880     9.4820    24.2810 h1         1 314       0.086700
     64 HO3         20.5090     9.2140    23.3010 ho         1 314       0.440000
     65 H18         24.0000     9.4650    21.9120 hc         1 314       0.068200
     66 H18A        22.4780     9.5720    21.0550 hc         1 314       0.068200
     67 H20         25.6890     9.9060    20.3010 ha         1 314       0.138500
     68 H22         25.5650    13.4580    17.8690 ha         1 314       0.151000
     69 H24         22.2430    12.5260    20.4440 ha         1 314       0.138500
     70 H25         22.2630    11.4130    25.5060 h1         1 314       0.068700
     71 H26         20.2290    11.9450    24.1340 hc         1 314       0.054700
     72 H26A        19.5000    10.4090    24.5820 hc         1 314       0.054700
     73 H27         20.2730    12.6640    26.5140 hc         1 314       0.047700
     74 H28         19.2440    11.2660    28.2970 hc         1 314       0.047200
     75 H28A        18.8810     9.9920    27.1350 hc         1 314       0.047200
     76 H29         21.6810    10.9810    27.9330 h1         1 314       0.052200
     77 H29A        20.9520     9.4190    28.3540 h1         1 314       0.052200
     78 HN3         20.9120     8.8450    26.0270 hn         1 314       0.414000
     79 H30         17.9000    13.0220    26.9100 hc         1 314       0.050700
     80 H30A        18.3240    13.3250    25.2520 hc         1 314       0.050700
     81 H32         16.4480    11.0800    27.5370 ha         1 314       0.111000
     82 H33         14.6340     9.5570    26.7870 ha         1 314       0.111500
     83 H34         14.2390     9.1830    24.3540 ha         1 314       0.112000
     84 H35         15.6640    10.3460    22.6700 ha         1 314       0.111500
     85 H36         17.4800    11.8710    23.4130 ha         1 314       0.111000
     86 C18         23.2490    10.1770    21.5460 c3         1 314      -0.051100
     87 C15         23.2200    13.2800    23.4120 c          1 314       0.615700
     88 C7          28.2220    14.3030    23.5640 c          1 314       0.609700
     89 O2          22.0680    13.6770    23.3150 o          1 314      -0.609100
@<TRIPOS>BOND
     1     1    24 1   
     2     2    26 1   
     3     3     4 ar  
     4     3     8 ar  
     5     3    41 1   
     6     4     5 ar  
     7     4    88 1   
     8     5     6 ar  
     9     5    42 1   
    10     6     7 ar  
    11     6    87 1   
    12     7     8 ar  
    13     7    43 1   
    14     8    17 1   
    15     9    11 1   
    16     9    12 1   
    17     9    88 1   
    18    10    88 2   
    19    11    15 1   
    20    11    44 1   
    21    11    45 1   
    22    12    13 1   
    23    12    46 1   
    24    12    47 1   
    25    13    14 1   
    26    13    48 1   
    27    13    49 1   
    28    14    50 1   
    29    14    51 1   
    30    14    52 1   
    31    15    16 1   
    32    15    53 1   
    33    15    54 1   
    34    16    55 1   
    35    16    56 1   
    36    16    57 1   
    37    17    58 1   
    38    17    59 1   
    39    17    60 1   
    40    18    19 1   
    41    18    61 1   
    42    18    87 1   
    43    19    20 1   
    44    19    62 1   
    45    19    86 1   
    46    20    21 1   
    47    20    28 1   
    48    20    63 1   
    49    21    64 1   
    50    22    23 ar  
    51    22    27 ar  
    52    22    86 1   
    53    23    24 ar  
    54    23    67 1   
    55    24    25 ar  
    56    25    26 ar  
    57    25    68 1   
    58    26    27 ar  
    59    27    69 1   
    60    28    29 1   
    61    28    33 1   
    62    28    70 1   
    63    29    30 1   
    64    29    71 1   
    65    29    72 1   
    66    30    31 1   
    67    30    34 1   
    68    30    73 1   
    69    31    32 1   
    70    31    74 1   
    71    31    75 1   
    72    32    33 1   
    73    32    76 1   
    74    32    77 1   
    75    33    78 1   
    76    34    35 1   
    77    34    79 1   
    78    34    80 1   
    79    35    36 ar  
    80    35    40 ar  
    81    36    37 ar  
    82    36    81 1   
    83    37    38 ar  
    84    37    82 1   
    85    38    39 ar  
    86    38    83 1   
    87    39    40 ar  
    88    39    84 1   
    89    40    85 1   
    90    65    86 1   
    91    66    86 1   
    92    87    89 2   
@<TRIPOS>SUBSTRUCTURE
     1 314         1 TEMP              0 ****  ****    0 ROOT
