@<TRIPOS>MOLECULE
314
   89    92     1     0     0
SMALL
abcg2


@<TRIPOS>ATOM
      1 F1          27.1410    11.1120    19.3180 f          1 314      -0.176500
      2 F2          22.8690    12.6890    18.1780 f          1 314      -0.176500
      3 C1          26.4400    15.4950    24.1800 ca         1 314      -0.056000
      4 C2          26.7420    14.2510    23.6360 ca         1 314      -0.132600
      5 C3          25.7190    13.3570    23.3380 ca         1 314      -0.074000
      6 C4          24.3940    13.7220    23.5640 ca         1 314      -0.150600
      7 C5          24.1020    14.9850    24.0750 ca         1 314      -0.051000
      8 C6          25.1170    15.8810    24.4010 ca         1 314      -0.084300
      9 N1          28.6310    13.6660    22.1920 n          1 314      -0.403800
     10 O1          28.8590    13.6290    24.4600 o          1 314      -0.603100
     11 C8          29.9680    13.1050    21.9850 c3         1 314       0.094500
     12 C9          27.8940    14.0660    20.9900 c3         1 314       0.094500
     13 C10         28.4440    15.3310    20.3290 c3         1 314      -0.093900
     14 C11         28.3950    16.5610    21.2300 c3         1 314      -0.087600
     15 C12         29.9330    11.6830    21.4180 c3         1 314      -0.093900
     16 C13         29.1450    10.7020    22.2820 c3         1 314      -0.087600
     17 C14         24.7970    17.2250    24.9950 c3         1 314      -0.047800
     18 N2          23.4980    11.4930    23.4080 ns         1 314      -0.500900
     19 C16         22.6100    10.4330    22.9650 c3         1 314       0.081700
     20 C17         22.1410     9.5710    24.1510 c3         1 314       0.157300
     21 O3          21.2280     8.5660    23.7000 oh         1 314      -0.657000
     22 C19         23.9030    10.3830    20.7800 ca         1 314      -0.025300
     23 C20         25.2810    10.3790    20.5640 ca         1 314      -0.162500
     24 C21         25.8040    11.1430    19.5360 ca         1 314       0.194500
     25 C22         25.0290    11.9400    18.7150 ca         1 314      -0.193000
     26 C23         23.6670    11.9240    18.9620 ca         1 314       0.194500
     27 C24         23.0870    11.1670    19.9610 ca         1 314      -0.162500
     28 C25         21.5700    10.3760    25.3230 c6         1 314       0.138500
     29 C26         20.3390    11.2140    24.9570 c6         1 314      -0.117400
     30 C27         19.8020    11.9630    26.1800 c6         1 314      -0.050700
     31 C28         19.5350    10.9770    27.3170 c6         1 314      -0.113400
     32 C29         20.7800    10.1400    27.6140 c6         1 314       0.151800
     33 N3          21.3220     9.4540    26.4370 n7         1 314      -0.846400
     34 C30         18.5880    12.8560    25.8440 c3         1 314      -0.027100
     35 C31         17.3670    12.1190    25.3550 ca         1 314      -0.076300
     36 C32         16.3960    11.6650    26.2510 ca         1 314      -0.110000
     37 C33         15.2840    10.9570    25.8080 ca         1 314      -0.110500
     38 C34         15.1220    10.6880    24.4520 ca         1 314      -0.112000
     39 C35         16.0760    11.1410    23.5460 ca         1 314      -0.110500
     40 C36         17.1850    11.8510    23.9960 ca         1 314      -0.110000
     41 H1          27.2440    16.1810    24.4180 ha         1 314       0.126000
     42 H3          25.9600    12.4000    22.8930 ha         1 314       0.119000
     43 H5          23.0670    15.2640    24.2230 ha         1 314       0.133000
     44 H8          30.5220    13.7600    21.3110 h1         1 314       0.058450
     45 H8A         30.4730    13.1130    22.9470 h1         1 314       0.058450
     46 H9          27.9230    13.2370    20.2830 h1         1 314       0.058450
     47 H9A         26.8530    14.2220    21.2540 h1         1 314       0.058450
     48 H10         29.4680    15.1590    19.9880 hc         1 314       0.044700
     49 H10A        27.8470    15.5030    19.4290 hc         1 314       0.044700
     50 H11         29.0000    16.4190    22.1280 hc         1 314       0.034700
     51 H11A        28.7750    17.4410    20.7080 hc         1 314       0.034700
     52 H11B        27.3720    16.7720    21.5500 hc         1 314       0.034700
     53 H12         29.5210    11.6960    20.4060 hc         1 314       0.044700
     54 H12A        30.9700    11.3510    21.3220 hc         1 314       0.044700
     55 H13         29.1720     9.6990    21.8520 hc         1 314       0.034700
     56 H13A        29.5570    10.6480    23.2920 hc         1 314       0.034700
     57 H13B        28.0980    11.0000    22.3610 hc         1 314       0.034700
     58 H14         24.6890    17.1500    26.0810 hc         1 314       0.047367
     59 H14A        25.5890    17.9450    24.7910 hc         1 314       0.047367
     60 H14B        23.8580    17.6160    24.6000 hc         1 314       0.047367
     61 HN2         24.3840    11.2190    23.8050 hn         1 314       0.320500
     62 H16         21.7450    10.9260    22.5220 h1         1 314       0.083700
     63 H17         23.0000     9.0120    24.5320 h1         1 314       0.086700
     64 HO3         20.4570     8.9980    23.3100 ho         1 314       0.440000
     65 H18         24.1040     8.9930    22.3840 hc         1 314       0.068200
     66 H18A        22.5860     8.8570    21.5080 hc         1 314       0.068200
     67 H20         25.9430     9.7900    21.1840 ha         1 314       0.138500
     68 H22         25.4600    12.5360    17.9230 ha         1 314       0.151000
     69 H24         22.0140    11.1970    20.0990 ha         1 314       0.138500
     70 H25         22.3590    11.0590    25.6530 h1         1 314       0.068700
     71 H26         20.5890    11.9290    24.1720 hc         1 314       0.054700
     72 H26A        19.5550    10.5580    24.5660 hc         1 314       0.054700
     73 H27         20.5920    12.6460    26.5140 hc         1 314       0.047700
     74 H28         19.2210    11.5120    28.2190 hc         1 314       0.047200
     75 H28A        18.7150    10.3070    27.0380 hc         1 314       0.047200
     76 H29         21.5680    10.7890    28.0140 h1         1 314       0.052200
     77 H29A        20.5630     9.3900    28.3780 h1         1 314       0.052200
     78 HN3         20.6520     8.7560    26.1240 hn         1 314       0.414000
     79 H30         18.3280    13.4250    26.7400 hc         1 314       0.050700
     80 H30A        18.9000    13.5760    25.0830 hc         1 314       0.050700
     81 H32         16.5120    11.8730    27.3080 ha         1 314       0.111000
     82 H33         14.5430    10.6160    26.5210 ha         1 314       0.111500
     83 H34         14.2570    10.1370    24.1040 ha         1 314       0.112000
     84 H35         15.9570    10.9450    22.4880 ha         1 314       0.111500
     85 H36         17.9200    12.2050    23.2830 ha         1 314       0.111000
     86 C18         23.3110     9.5700    21.9010 c3         1 314      -0.051100
     87 C15         23.2640    12.8070    23.2120 c          1 314       0.615700
     88 C7          28.1740    13.8350    23.4510 c          1 314       0.609700
     89 O2          22.2000    13.2490    22.7740 o          1 314      -0.609100
@<TRIPOS>BOND
     1     1    24 1   
     2     2    26 1   
     3     3     4 ar  
     4     3     8 ar  
     5     3    41 1   
     6     4     5 ar  
     7     4    88 1   
     8     5     6 ar  
     9     5    42 1   
    10     6     7 ar  
    11     6    87 1   
    12     7     8 ar  
    13     7    43 1   
    14     8    17 1   
    15     9    11 1   
    16     9    12 1   
    17     9    88 1   
    18    10    88 2   
    19    11    15 1   
    20    11    44 1   
    21    11    45 1   
    22    12    13 1   
    23    12    46 1   
    24    12    47 1   
    25    13    14 1   
    26    13    48 1   
    27    13    49 1   
    28    14    50 1   
    29    14    51 1   
    30    14    52 1   
    31    15    16 1   
    32    15    53 1   
    33    15    54 1   
    34    16    55 1   
    35    16    56 1   
    36    16    57 1   
    37    17    58 1   
    38    17    59 1   
    39    17    60 1   
    40    18    19 1   
    41    18    61 1   
    42    18    87 1   
    43    19    20 1   
    44    19    62 1   
    45    19    86 1   
    46    20    21 1   
    47    20    28 1   
    48    20    63 1   
    49    21    64 1   
    50    22    23 ar  
    51    22    27 ar  
    52    22    86 1   
    53    23    24 ar  
    54    23    67 1   
    55    24    25 ar  
    56    25    26 ar  
    57    25    68 1   
    58    26    27 ar  
    59    27    69 1   
    60    28    29 1   
    61    28    33 1   
    62    28    70 1   
    63    29    30 1   
    64    29    71 1   
    65    29    72 1   
    66    30    31 1   
    67    30    34 1   
    68    30    73 1   
    69    31    32 1   
    70    31    74 1   
    71    31    75 1   
    72    32    33 1   
    73    32    76 1   
    74    32    77 1   
    75    33    78 1   
    76    34    35 1   
    77    34    79 1   
    78    34    80 1   
    79    35    36 ar  
    80    35    40 ar  
    81    36    37 ar  
    82    36    81 1   
    83    37    38 ar  
    84    37    82 1   
    85    38    39 ar  
    86    38    83 1   
    87    39    40 ar  
    88    39    84 1   
    89    40    85 1   
    90    65    86 1   
    91    66    86 1   
    92    87    89 2   
@<TRIPOS>SUBSTRUCTURE
     1 314         1 TEMP              0 ****  ****    0 ROOT
