@<TRIPOS>MOLECULE
316
   87    90     1     0     0
SMALL
bcc


@<TRIPOS>ATOM
      1 C1          -4.8090     0.5590    -1.5480 ca         1 316      -0.084000
      2 C2          -4.5080     0.5250    -0.1910 ca         1 316      -0.144600
      3 C3          -3.2720     0.0580     0.2310 ca         1 316      -0.046000
      4 C4          -2.3180    -0.3250    -0.7050 ca         1 316      -0.150600
      5 C5          -2.6360    -0.2900    -2.0600 ca         1 316      -0.094000
      6 C6          -3.8820     0.1440    -2.4990 ca         1 316      -0.086300
      7 C7          -5.5450     0.8700     0.8360 c          1 316       0.679700
      8 N1          -5.9070     2.1600     0.9500 n          1 316      -0.472800
      9 O1          -6.0260    -0.0240     1.5210 o          1 316      -0.587100
     10 C8          -6.9200     2.5260     1.9300 c3         1 316       0.099500
     11 C9          -5.2220     3.2670     0.2980 c3         1 316       0.099500
     12 C10         -6.0010     3.8660    -0.8650 c3         1 316      -0.097900
     13 C11         -5.2970     5.0860    -1.4420 c3         1 316      -0.088600
     14 C12         -6.3510     2.7270     3.3300 c3         1 316      -0.097900
     15 C13         -7.4200     3.1880     4.3100 c3         1 316      -0.088600
     16 C14         -4.2150     0.1870    -3.9610 c3         1 316      -0.046800
     17 C15         -0.9950    -0.8140    -0.2030 c          1 316       0.685700
     18 O2          -0.8940    -1.3200     0.9050 o          1 316      -0.596100
     19 N2           0.0430    -0.6380    -1.0400 ns         1 316      -0.571900
     20 C16          1.3700    -1.1630    -0.8090 c3         1 316       0.086700
     21 C17          2.3920    -0.0350    -1.0440 c3         1 316       0.150100
     22 O3           2.2280     0.5110    -2.3290 oh         1 316      -0.572800
     23 C18          1.6150    -2.3970    -1.6910 c3         1 316      -0.052100
     24 C19          0.6460    -3.4890    -1.3490 ca         1 316      -0.024300
     25 C20         -0.5020    -3.6860    -2.1080 ca         1 316      -0.182500
     26 C21         -1.4040    -4.6580    -1.7180 ca         1 316       0.168900
     27 C22         -1.2140    -5.4530    -0.6050 ca         1 316      -0.212000
     28 C23         -0.0580    -5.2320     0.1220 ca         1 316       0.168900
     29 C24          0.8720    -4.2740    -0.2220 ca         1 316      -0.182500
     30 F1          -2.5130    -4.8410    -2.4480 f          1 316      -0.138900
     31 F2           0.1590    -5.9870     1.2090 f          1 316      -0.138900
     32 C25          3.8340    -0.5010    -0.7690 c6         1 316       0.056500
     33 C26          4.8140     0.6790    -0.7070 c          1 316       0.674500
     34 N4           5.8920     0.5350     0.0970 n          1 316      -0.476800
     35 C28          6.0810    -0.5550     1.0430 c6         1 316       0.064000
     36 C29          5.2320    -1.7570     0.6900 c6         1 316       0.137800
     37 N3           3.8700    -1.3760     0.3850 n7         1 316      -0.793200
     38 O4           4.6430     1.6770    -1.3940 o          1 316      -0.617500
     39 C27          6.8610     1.6150     0.2060 c3         1 316       0.139300
     40 C31          6.6710     2.4350     1.4570 ca         1 316      -0.118300
     41 C32          7.5670     2.3320     2.5160 ca         1 316      -0.115500
     42 C33          7.3840     3.0710     3.6790 ca         1 316      -0.131000
     43 C34          6.2960     3.9250     3.7940 ca         1 316      -0.121000
     44 C35          5.3950     4.0350     2.7410 ca         1 316      -0.131000
     45 C36          5.5810     3.2960     1.5820 ca         1 316      -0.115500
     46 H1          -5.7860     0.8990    -1.8730 ha         1 316       0.138000
     47 H3          -3.0400     0.0080     1.2870 ha         1 316       0.163000
     48 H5          -1.9230    -0.6340    -2.8010 ha         1 316       0.128000
     49 H8          -7.3860     3.4530     1.5870 h1         1 316       0.052700
     50 H8A         -7.7030     1.7680     1.9450 h1         1 316       0.052700
     51 H9          -5.0470     4.0370     1.0560 h1         1 316       0.052700
     52 H9A         -4.2360     2.9430    -0.0360 h1         1 316       0.052700
     53 H10         -6.1310     3.1110    -1.6440 hc         1 316       0.046700
     54 H10A        -7.0040     4.1430    -0.5320 hc         1 316       0.046700
     55 H11         -5.8560     5.4980    -2.2820 hc         1 316       0.034367
     56 H11A        -5.1920     5.8750    -0.6960 hc         1 316       0.034367
     57 H11B        -4.2980     4.8350    -1.8020 hc         1 316       0.034367
     58 H12         -5.9070     1.7910     3.6770 hc         1 316       0.046700
     59 H12A        -5.5430     3.4630     3.2920 hc         1 316       0.046700
     60 H13         -7.0060     3.3200     5.3090 hc         1 316       0.034367
     61 H13A        -7.8550     4.1420     4.0050 hc         1 316       0.034367
     62 H13B        -8.2320     2.4630     4.3820 hc         1 316       0.034367
     63 H14         -4.0210     1.1800    -4.3720 hc         1 316       0.045033
     64 H14A        -3.6150    -0.5230    -4.5290 hc         1 316       0.045033
     65 H14B        -5.2660    -0.0370    -4.1380 hc         1 316       0.045033
     66 HN2         -0.1020    -0.1440    -1.9060 hn         1 316       0.324500
     67 H16          1.4190    -1.4710     0.2340 h1         1 316       0.100700
     68 H17          2.1390     0.7670    -0.3430 h1         1 316       0.091700
     69 HO3          2.6020    -0.0920    -2.9800 ho         1 316       0.402000
     70 H18          1.5200    -2.1350    -2.7480 hc         1 316       0.056700
     71 H18A         2.6330    -2.7520    -1.5260 hc         1 316       0.056700
     72 H20         -0.6920    -3.0920    -2.9930 ha         1 316       0.151000
     73 H22         -1.9330    -6.2080    -0.3170 ha         1 316       0.168000
     74 H24          1.7590    -4.1310     0.3840 ha         1 316       0.151000
     75 H25          4.1650    -1.0980    -1.6320 h1         1 316       0.077700
     76 H28          7.1390    -0.8260     1.0510 h1         1 316       0.051200
     77 H28A         5.8320    -0.2080     2.0520 h1         1 316       0.051200
     78 H29          5.6470    -2.2760    -0.1780 h1         1 316       0.068200
     79 H29A         5.2420    -2.4610     1.5220 h1         1 316       0.068200
     80 HN3          3.4650    -0.9060     1.1890 hn         1 316       0.369800
     81 H27          7.8590     1.1690     0.2060 h1         1 316       0.068200
     82 H27A         6.7870     2.2430    -0.6790 h1         1 316       0.068200
     83 H32          8.4180     1.6650     2.4350 ha         1 316       0.135500
     84 H33          8.0900     2.9770     4.4930 ha         1 316       0.132000
     85 H34          6.1510     4.5020     4.6980 ha         1 316       0.132000
     86 H35          4.5460     4.7010     2.8220 ha         1 316       0.132000
     87 H36          4.8750     3.3930     0.7660 ha         1 316       0.135500
@<TRIPOS>BOND
     1     1     2 ar  
     2     1     6 ar  
     3     1    46 1   
     4     2     3 ar  
     5     2     7 1   
     6     3     4 ar  
     7     3    47 1   
     8     4     5 ar  
     9     4    17 1   
    10     5     6 ar  
    11     5    48 1   
    12     6    16 1   
    13     7     8 1   
    14     7     9 2   
    15     8    10 1   
    16     8    11 1   
    17    10    14 1   
    18    10    49 1   
    19    10    50 1   
    20    11    12 1   
    21    11    51 1   
    22    11    52 1   
    23    12    13 1   
    24    12    53 1   
    25    12    54 1   
    26    13    55 1   
    27    13    56 1   
    28    13    57 1   
    29    14    15 1   
    30    14    58 1   
    31    14    59 1   
    32    15    60 1   
    33    15    61 1   
    34    15    62 1   
    35    16    63 1   
    36    16    64 1   
    37    16    65 1   
    38    17    18 2   
    39    17    19 1   
    40    19    20 1   
    41    19    66 1   
    42    20    21 1   
    43    20    23 1   
    44    20    67 1   
    45    21    22 1   
    46    21    32 1   
    47    21    68 1   
    48    22    69 1   
    49    23    24 1   
    50    23    70 1   
    51    23    71 1   
    52    24    25 ar  
    53    24    29 ar  
    54    25    26 ar  
    55    25    72 1   
    56    26    27 ar  
    57    26    30 1   
    58    27    28 ar  
    59    27    73 1   
    60    28    29 ar  
    61    28    31 1   
    62    29    74 1   
    63    32    33 1   
    64    32    37 1   
    65    32    75 1   
    66    33    34 1   
    67    33    38 2   
    68    34    35 1   
    69    34    39 1   
    70    35    36 1   
    71    35    76 1   
    72    35    77 1   
    73    36    37 1   
    74    36    78 1   
    75    36    79 1   
    76    37    80 1   
    77    39    40 1   
    78    39    81 1   
    79    39    82 1   
    80    40    41 ar  
    81    40    45 ar  
    82    41    42 ar  
    83    41    83 1   
    84    42    43 ar  
    85    42    84 1   
    86    43    44 ar  
    87    43    85 1   
    88    44    45 ar  
    89    44    86 1   
    90    45    87 1   
@<TRIPOS>SUBSTRUCTURE
     1 316         1 TEMP              0 ****  ****    0 ROOT
