@<TRIPOS>MOLECULE
316
   87    90     1     0     0
SMALL
No Charge or Current Charge


@<TRIPOS>ATOM
      1 C1          -4.4900     1.2650    -1.4850 ca         1 316      -0.066000
      2 C2          -4.4120     0.7910    -0.1580 ca         1 316      -0.144600
      3 C3          -3.2070     0.2120     0.2910 ca         1 316      -0.028000
      4 C4          -2.0710     0.1410    -0.5470 ca         1 316      -0.150600
      5 C5          -2.1680     0.6480    -1.8650 ca         1 316      -0.076000
      6 C6          -3.3730     1.2000    -2.3350 ca         1 316      -0.086300
      7 C7          -5.6100     0.8260     0.7680 c          1 316       0.612700
      8 N1          -6.5720     1.8550     0.5980 n          1 316      -0.405800
      9 O1          -5.7840    -0.0750     1.5800 o          1 316      -0.587100
     10 C8          -7.9160     1.6810     1.2140 c3         1 316       0.099500
     11 C9          -6.1090     3.2560     0.3770 c3         1 316       0.099500
     12 C10         -7.0960     4.1500    -0.4080 c3         1 316      -0.097900
     13 C11         -6.5160     5.5420    -0.7260 c3         1 316      -0.088600
     14 C12         -8.0650     2.3120     2.6170 c3         1 316      -0.097900
     15 C13         -9.4430     2.0390     3.2510 c3         1 316      -0.088600
     16 C14         -3.4670     1.7270    -3.7590 c3         1 316      -0.046800
     17 C15         -0.7980    -0.4820    -0.0120 c          1 316       0.618700
     18 O2          -0.7230    -0.9310     1.1240 o          1 316      -0.596100
     19 N2           0.2770    -0.5190    -0.8740 ns         1 316      -0.504900
     20 C16          1.5740    -1.1600    -0.5960 c3         1 316       0.086700
     21 C17          2.7500    -0.2160    -1.0130 c3         1 316       0.173300
     22 O3           2.6170     0.0960    -2.4170 oh         1 316      -0.635000
     23 C18          1.6230    -2.5720    -1.2450 c3         1 316      -0.052100
     24 C19          0.4910    -3.4750    -0.7710 ca         1 316      -0.024300
     25 C20         -0.6740    -3.6340    -1.5480 ca         1 316      -0.164500
     26 C21         -1.7230    -4.4460    -1.0900 ca         1 316       0.204000
     27 C22         -1.6230    -5.1100     0.1390 ca         1 316      -0.194000
     28 C23         -0.4650    -4.9560     0.9130 ca         1 316       0.204000
     29 C24          0.5890    -4.1450     0.4640 ca         1 316      -0.164500
     30 F1          -2.8380    -4.5860    -1.8390 f          1 316      -0.174000
     31 F2          -0.3630    -5.5920     2.1000 f          1 316      -0.174000
     32 C25          4.1940    -0.7420    -0.6590 c6         1 316       0.056500
     33 C26          5.2890     0.3860    -0.7680 c          1 316       0.532000
     34 N4           6.5240     0.1530    -0.1080 n          1 316      -0.409800
     35 C28          6.6900    -0.9260     0.9100 c6         1 316       0.064000
     36 C29          5.5810    -2.0140     0.9060 c6         1 316       0.137800
     37 N3           4.2400    -1.4290     0.6780 n7         1 316      -0.848400
     38 O4           5.1000     1.4220    -1.3960 o          1 316      -0.542000
     39 C27          7.6340     1.1260    -0.2300 c3         1 316       0.139300
     40 C31          7.7070     2.1050     0.9370 ca         1 316      -0.118300
     41 C32          8.5680     1.8510     2.0240 ca         1 316      -0.097500
     42 C33          8.6320     2.7510     3.1020 ca         1 316      -0.113000
     43 C34          7.8370     3.9100     3.1000 ca         1 316      -0.103000
     44 C35          6.9780     4.1680     2.0190 ca         1 316      -0.113000
     45 C36          6.9130     3.2680     0.9410 ca         1 316      -0.097500
     46 H1          -5.4240     1.6730    -1.8650 ha         1 316       0.120000
     47 H3          -3.1530    -0.1770     1.3060 ha         1 316       0.145000
     48 H5          -1.3190     0.6120    -2.5430 ha         1 316       0.110000
     49 H8          -8.6700     2.1130     0.5440 h1         1 316       0.052700
     50 H8A         -8.1480     0.6100     1.2790 h1         1 316       0.052700
     51 H9          -5.9260     3.7150     1.3570 h1         1 316       0.052700
     52 H9A         -5.1460     3.2670    -0.1430 h1         1 316       0.052700
     53 H10         -7.3620     3.6520    -1.3480 hc         1 316       0.046700
     54 H10A        -8.0230     4.2810     0.1630 hc         1 316       0.046700
     55 H11         -7.2460     6.1420    -1.2830 hc         1 316       0.034367
     56 H11A        -6.2640     6.0770     0.1970 hc         1 316       0.034367
     57 H11B        -5.6090     5.4540    -1.3360 hc         1 316       0.034367
     58 H12         -7.2840     1.9140     3.2770 hc         1 316       0.046700
     59 H12A        -7.9150     3.3960     2.5580 hc         1 316       0.046700
     60 H13         -9.5060     2.5020     4.2430 hc         1 316       0.034367
     61 H13A       -10.2450     2.4530     2.6280 hc         1 316       0.034367
     62 H13B        -9.6120     0.9610     3.3640 hc         1 316       0.034367
     63 H14         -3.1520     2.7760    -3.8080 hc         1 316       0.045033
     64 H14A        -2.8280     1.1530    -4.4410 hc         1 316       0.045033
     65 H14B        -4.4920     1.6670    -4.1430 hc         1 316       0.045033
     66 HN2          0.1500    -0.0920    -1.7820 hn         1 316       0.324500
     67 H16          1.6510    -1.3030     0.4900 h1         1 316       0.100700
     68 H17          2.6140     0.7060    -0.4280 h1         1 316       0.091700
     69 HO3          2.8310    -0.7160    -2.9220 ho         1 316       0.441000
     70 H18          1.5890    -2.4770    -2.3360 hc         1 316       0.056700
     71 H18A         2.5830    -3.0480    -1.0130 hc         1 316       0.056700
     72 H20         -0.7730    -3.1210    -2.5010 ha         1 316       0.133000
     73 H22         -2.4370    -5.7380     0.4900 ha         1 316       0.150000
     74 H24          1.4770    -4.0300     1.0800 ha         1 316       0.133000
     75 H25          4.4700    -1.4810    -1.4250 h1         1 316       0.077700
     76 H28          7.6670    -1.4110     0.7780 h1         1 316       0.051200
     77 H28A         6.6990    -0.4530     1.9020 h1         1 316       0.051200
     78 H29          5.7980    -2.7440     0.1120 h1         1 316       0.068200
     79 H29A         5.6000    -2.5590     1.8620 h1         1 316       0.068200
     80 HN3          4.0560    -0.7420     1.4240 hn         1 316       0.425000
     81 H27          8.5790     0.5710    -0.2930 h1         1 316       0.068200
     82 H27A         7.5440     1.6870    -1.1700 h1         1 316       0.068200
     83 H32          9.1850     0.9560     2.0350 ha         1 316       0.117500
     84 H33          9.2970     2.5500     3.9390 ha         1 316       0.114000
     85 H34          7.8870     4.6060     3.9340 ha         1 316       0.114000
     86 H35          6.3620     5.0650     2.0160 ha         1 316       0.114000
     87 H36          6.2440     3.4750     0.1080 ha         1 316       0.117500
@<TRIPOS>BOND
     1     1     2 ar  
     2     1     6 ar  
     3     1    46 1   
     4     2     3 ar  
     5     2     7 1   
     6     3     4 ar  
     7     3    47 1   
     8     4     5 ar  
     9     4    17 1   
    10     5     6 ar  
    11     5    48 1   
    12     6    16 1   
    13     7     8 1   
    14     7     9 2   
    15     8    10 1   
    16     8    11 1   
    17    10    14 1   
    18    10    49 1   
    19    10    50 1   
    20    11    12 1   
    21    11    51 1   
    22    11    52 1   
    23    12    13 1   
    24    12    53 1   
    25    12    54 1   
    26    13    55 1   
    27    13    56 1   
    28    13    57 1   
    29    14    15 1   
    30    14    58 1   
    31    14    59 1   
    32    15    60 1   
    33    15    61 1   
    34    15    62 1   
    35    16    63 1   
    36    16    64 1   
    37    16    65 1   
    38    17    18 2   
    39    17    19 1   
    40    19    20 1   
    41    19    66 1   
    42    20    21 1   
    43    20    23 1   
    44    20    67 1   
    45    21    22 1   
    46    21    32 1   
    47    21    68 1   
    48    22    69 1   
    49    23    24 1   
    50    23    70 1   
    51    23    71 1   
    52    24    25 ar  
    53    24    29 ar  
    54    25    26 ar  
    55    25    72 1   
    56    26    27 ar  
    57    26    30 1   
    58    27    28 ar  
    59    27    73 1   
    60    28    29 ar  
    61    28    31 1   
    62    29    74 1   
    63    32    33 1   
    64    32    37 1   
    65    32    75 1   
    66    33    34 1   
    67    33    38 2   
    68    34    35 1   
    69    34    39 1   
    70    35    36 1   
    71    35    76 1   
    72    35    77 1   
    73    36    37 1   
    74    36    78 1   
    75    36    79 1   
    76    37    80 1   
    77    39    40 1   
    78    39    81 1   
    79    39    82 1   
    80    40    41 ar  
    81    40    45 ar  
    82    41    42 ar  
    83    41    83 1   
    84    42    43 ar  
    85    42    84 1   
    86    43    44 ar  
    87    43    85 1   
    88    44    45 ar  
    89    44    86 1   
    90    45    87 1   
@<TRIPOS>SUBSTRUCTURE
     1 316         1 TEMP              0 ****  ****    0 ROOT
