@<TRIPOS>MOLECULE
317
   55    58     1     0     0
SMALL
abcg2


@<TRIPOS>ATOM
      1 C1           2.6870    -1.4520     0.0780 c3         1 317      -0.088000
      2 C2           3.2830    -0.4560     1.1100 c3         1 317       0.205700
      3 C3           3.4740     0.9140     0.5330 c2         1 317       0.037300
      4 C4           4.5950     1.5550     0.2480 c2         1 317      -0.131400
      5 F5           2.2880     1.5510     0.3080 f          1 317      -0.190500
      6 N6           2.5100    -0.4890     2.3390 n8         1 317      -0.993200
      7 C7           3.6630    -1.7860    -1.0560 c3         1 317      -0.046400
      8 C8           4.6710     2.9510    -0.3270 c5         1 317      -0.040200
      9 C9           6.1590     3.3070    -0.2440 c5         1 317      -0.079900
     10 C10          6.8610     1.9590    -0.3940 c5         1 317      -0.079900
     11 C11          5.9930     1.0150     0.4420 c5         1 317      -0.040200
     12 C18          4.8100    -2.6470    -0.5890 cx         1 317      -0.133700
     13 C19          5.4280    -3.6290    -1.5350 cx         1 317      -0.128400
     14 C20          4.5930    -4.1150    -0.3880 cx         1 317      -0.128400
     15 C26          1.3690    -0.9710    -0.4200 cc         1 317       0.491300
     16 N27          0.2320    -0.9810     0.1960 nd         1 317      -0.695000
     17 C28         -0.6000    -0.3900    -0.7040 cd         1 317       0.597500
     18 N29         -0.0190    -0.0510    -1.8140 nc         1 317      -0.364300
     19 O30          1.2750    -0.4330    -1.6300 os         1 317      -0.075700
     20 C31         -2.0170    -0.0950    -0.4670 ca         1 317      -0.073500
     21 C32         -2.5090     1.1530    -0.8470 ca         1 317      -0.088000
     22 C33         -3.8330     1.4940    -0.6410 ca         1 317      -0.026000
     23 C34         -4.6740     0.5650    -0.0490 ca         1 317      -0.243500
     24 C35         -4.2210    -0.6860     0.3350 ca         1 317      -0.023000
     25 C36         -2.8920    -1.0100     0.1190 ca         1 317       0.132000
     26 S40         -6.3860     0.9800     0.2210 sy         1 317       1.058500
     27 O41         -6.9100     0.0830     1.2460 o          1 317      -0.518000
     28 O42         -6.4710     2.4220     0.4280 o          1 317      -0.518000
     29 C43         -7.1530     0.5830    -1.3310 c3         1 317      -0.337100
     30 CL47        -2.3670    -2.5920     0.5550 cl         1 317      -0.159000
     31 H1           2.4740    -2.3650     0.6410 hc         1 317       0.108700
     32 H2           4.2760    -0.8410     1.3500 h1         1 317       0.078700
     33 HN6          2.9620     0.0860     3.0390 hn         1 317       0.414500
     34 HN6A         1.5860    -0.0970     2.2010 hn         1 317       0.414500
     35 H7           3.1290    -2.3220    -1.8450 hc         1 317       0.060700
     36 H7A          4.0460    -0.8660    -1.5100 hc         1 317       0.060700
     37 H8           4.3420     2.9410    -1.3710 hc         1 317       0.057450
     38 H8A          4.0330     3.6640     0.1980 hc         1 317       0.057450
     39 H9           6.4600     4.0380    -0.9950 hc         1 317       0.047700
     40 H9A          6.3870     3.7320     0.7370 hc         1 317       0.047700
     41 H10          6.8470     1.6460    -1.4420 hc         1 317       0.047700
     42 H10A         7.9010     1.9740    -0.0690 hc         1 317       0.047700
     43 H11          6.2770     1.0850     1.4970 hc         1 317       0.057450
     44 H11A         6.1060    -0.0300     0.1510 hc         1 317       0.057450
     45 H18          5.5020    -2.1770     0.1030 hc         1 317       0.075700
     46 H19          5.0130    -3.7020    -2.5330 hc         1 317       0.073450
     47 H19A         6.4990    -3.7800    -1.4890 hc         1 317       0.073450
     48 H20          5.0900    -4.6030     0.4410 hc         1 317       0.073450
     49 H20A         3.6100    -4.5140    -0.6120 hc         1 317       0.073450
     50 H32         -1.8380     1.8730    -1.2940 ha         1 317       0.138000
     51 H33         -4.1900     2.4710    -0.9350 ha         1 317       0.142000
     52 H35         -4.8840    -1.4070     0.7940 ha         1 317       0.156000
     53 H43         -7.0240    -0.4770    -1.5360 h1         1 317       0.104700
     54 H43A        -8.2130     0.8200    -1.2360 h1         1 317       0.104700
     55 H43B        -6.7050     1.1820    -2.1210 h1         1 317       0.104700
@<TRIPOS>BOND
     1     1     2 1   
     2     1     7 1   
     3     1    15 1   
     4     1    31 1   
     5     2     3 1   
     6     2     6 1   
     7     2    32 1   
     8     3     4 2   
     9     3     5 1   
    10     4     8 1   
    11     4    11 1   
    12     6    33 1   
    13     6    34 1   
    14     7    12 1   
    15     7    35 1   
    16     7    36 1   
    17     8     9 1   
    18     8    37 1   
    19     8    38 1   
    20     9    10 1   
    21     9    39 1   
    22     9    40 1   
    23    10    11 1   
    24    10    41 1   
    25    10    42 1   
    26    11    43 1   
    27    11    44 1   
    28    12    13 1   
    29    12    14 1   
    30    12    45 1   
    31    13    14 1   
    32    13    46 1   
    33    13    47 1   
    34    14    48 1   
    35    14    49 1   
    36    15    16 2   
    37    15    19 1   
    38    16    17 1   
    39    17    18 2   
    40    17    20 1   
    41    18    19 1   
    42    20    21 ar  
    43    20    25 ar  
    44    21    22 ar  
    45    21    50 1   
    46    22    23 ar  
    47    22    51 1   
    48    23    24 ar  
    49    23    26 1   
    50    24    25 ar  
    51    24    52 1   
    52    25    30 1   
    53    26    27 2   
    54    26    28 2   
    55    26    29 1   
    56    29    53 1   
    57    29    54 1   
    58    29    55 1   
@<TRIPOS>SUBSTRUCTURE
     1 317         1 TEMP              0 ****  ****    0 ROOT
