@<TRIPOS>MOLECULE
317
   55    58     1     0     0
SMALL
No Charge or Current Charge


@<TRIPOS>ATOM
      1 C1           2.6680    -1.2270     0.2240 c3         1 317      -0.088000
      2 C2           3.4180    -0.2860     1.2160 c3         1 317       0.205700
      3 C3           3.6630     1.1260     0.6690 c2         1 317       0.037300
      4 C4           4.8380     1.5990     0.2120 c2         1 317      -0.131400
      5 F5           2.5750     1.9140     0.7180 f          1 317      -0.190500
      6 N6           2.7040    -0.2230     2.5120 n8         1 317      -0.993200
      7 C7           3.5540    -1.7050    -0.9630 c3         1 317      -0.046400
      8 C8           5.0780     3.0230    -0.2550 c5         1 317      -0.040200
      9 C9           6.6130     3.2010    -0.1240 c5         1 317      -0.079900
     10 C10          7.1190     1.8100    -0.5990 c5         1 317      -0.079900
     11 C11          6.1600     0.8490     0.1550 c5         1 317      -0.040200
     12 C18          4.6350    -2.7100    -0.5660 cx         1 317      -0.133700
     13 C19          5.1840    -3.6920    -1.5730 cx         1 317      -0.128400
     14 C20          4.3160    -4.1810    -0.4350 cx         1 317      -0.128400
     15 C26          1.3680    -0.6320    -0.2650 cc         1 317       0.491300
     16 N27          0.1720    -0.8240     0.2460 nd         1 317      -0.695000
     17 C28         -0.6400    -0.1060    -0.6050 cd         1 317       0.597500
     18 N29          0.0120     0.5150    -1.5790 nc         1 317      -0.364300
     19 O30          1.3600     0.1540    -1.3780 os         1 317      -0.075700
     20 C31         -2.1020     0.0440    -0.4240 ca         1 317      -0.073500
     21 C32         -2.7130     1.2660    -0.7970 ca         1 317      -0.088000
     22 C33         -4.0940     1.4700    -0.6370 ca         1 317      -0.026000
     23 C34         -4.9000     0.4480    -0.1030 ca         1 317      -0.243500
     24 C35         -4.3090    -0.7810     0.2550 ca         1 317      -0.023000
     25 C36         -2.9260    -0.9880     0.0980 ca         1 317       0.132000
     26 S40         -6.6770     0.6960     0.0950 sy         1 317       1.058500
     27 O41         -7.1770    -0.2420     1.1080 o          1 317      -0.518000
     28 O42         -6.9490     2.1360     0.1870 o          1 317      -0.518000
     29 C43         -7.3400     0.1500    -1.4780 c3         1 317      -0.337100
     30 Cl47        -2.3110    -2.5920     0.5120 cl         1 317      -0.159000
     31 H1           2.4000    -2.1300     0.7850 hc         1 317       0.108700
     32 H2           4.3920    -0.7430     1.4340 h1         1 317       0.078700
     33 HN6          3.2250     0.3970     3.1430 hn         1 317       0.414500
     34 HN6A         1.8220     0.2810     2.3690 hn         1 317       0.414500
     35 H7           2.9030    -2.1690    -1.7170 hc         1 317       0.060700
     36 H7A          4.0110    -0.8390    -1.4590 hc         1 317       0.060700
     37 H8           4.7610     3.1380    -1.2990 hc         1 317       0.057450
     38 H8A          4.5200     3.7600     0.3350 hc         1 317       0.057450
     39 H9           6.9970     4.0250    -0.7360 hc         1 317       0.047700
     40 H9A          6.9040     3.3980     0.9150 hc         1 317       0.047700
     41 H10          7.0150     1.7020    -1.6850 hc         1 317       0.047700
     42 H10A         8.1730     1.6350    -0.3510 hc         1 317       0.047700
     43 H11          6.5260     0.6470     1.1690 hc         1 317       0.057450
     44 H11A         6.0760    -0.1140    -0.3580 hc         1 317       0.057450
     45 H18          5.3520    -2.3080     0.1450 hc         1 317       0.075700
     46 H19          4.7570    -3.6960    -2.5740 hc         1 317       0.073450
     47 H19A         6.2480    -3.9170    -1.5330 hc         1 317       0.073450
     48 H20          4.7970    -4.7330     0.3690 hc         1 317       0.073450
     49 H20A         3.3080    -4.5110    -0.6740 hc         1 317       0.073450
     50 H32         -2.1130     2.0770    -1.2040 ha         1 317       0.138000
     51 H33         -4.5290     2.4250    -0.9300 ha         1 317       0.142000
     52 H35         -4.9200    -1.5900     0.6510 ha         1 317       0.156000
     53 H43         -7.0660    -0.9010    -1.6180 h1         1 317       0.104700
     54 H43A        -8.4280     0.2660    -1.4480 h1         1 317       0.104700
     55 H43B        -6.9050     0.7720    -2.2670 h1         1 317       0.104700
@<TRIPOS>BOND
     1     1     2 1   
     2     1     7 1   
     3     1    15 1   
     4     1    31 1   
     5     2     3 1   
     6     2     6 1   
     7     2    32 1   
     8     3     4 2   
     9     3     5 1   
    10     4     8 1   
    11     4    11 1   
    12     6    33 1   
    13     6    34 1   
    14     7    12 1   
    15     7    35 1   
    16     7    36 1   
    17     8     9 1   
    18     8    37 1   
    19     8    38 1   
    20     9    10 1   
    21     9    39 1   
    22     9    40 1   
    23    10    11 1   
    24    10    41 1   
    25    10    42 1   
    26    11    43 1   
    27    11    44 1   
    28    12    13 1   
    29    12    14 1   
    30    12    45 1   
    31    13    14 1   
    32    13    46 1   
    33    13    47 1   
    34    14    48 1   
    35    14    49 1   
    36    15    16 2   
    37    15    19 1   
    38    16    17 1   
    39    17    18 2   
    40    17    20 1   
    41    18    19 1   
    42    20    21 ar  
    43    20    25 ar  
    44    21    22 ar  
    45    21    50 1   
    46    22    23 ar  
    47    22    51 1   
    48    23    24 ar  
    49    23    26 1   
    50    24    25 ar  
    51    24    52 1   
    52    25    30 1   
    53    26    27 2   
    54    26    28 2   
    55    26    29 1   
    56    29    53 1   
    57    29    54 1   
    58    29    55 1   
@<TRIPOS>SUBSTRUCTURE
     1 317         1 TEMP              0 ****  ****    0 ROOT
