@<TRIPOS>MOLECULE
318
   84    87     1     0     0
SMALL
No Charge or Current Charge


@<TRIPOS>ATOM
      1 F1           0.9450     4.8480     1.8370 f          1 318      -0.170000
      2 N1           0.1240    -0.2760    -0.9590 ns         1 318      -0.494900
      3 C1          -1.1470     0.2450    -0.4280 c3         1 318       0.080700
      4 C2          -2.2870    -0.8070    -0.6150 c3         1 318       0.174300
      5 O1          -2.4270    -1.1230    -2.0150 oh         1 318      -0.638000
      6 C3          -3.6670    -0.3970    -0.0070 c5         1 318       0.025500
      7 N2          -3.6020     0.1390     1.3960 n7         1 318      -0.830400
      8 C4          -5.0070     0.0140     1.8590 c5         1 318       0.305200
      9 N3          -5.3790    -1.2630     1.2370 n          1 318      -0.440800
     10 C5          -4.6670    -1.5680     0.0790 c          1 318       0.534000
     11 C6          -1.4520     1.6440    -1.0350 c3         1 318      -0.059100
     12 O2          -4.8020    -2.5730    -0.6080 o          1 318      -0.521000
     13 C8          -6.4770    -2.1230     1.7120 c3         1 318       0.159300
     14 C9          -7.8420    -1.6330     1.2510 ca         1 318      -0.122300
     15 C10         -8.3540    -2.0320     0.0010 ca         1 318      -0.097000
     16 C11         -9.6120    -1.5730    -0.4290 ca         1 318      -0.111000
     17 C12        -10.3640    -0.7120     0.3880 ca         1 318      -0.102000
     18 C13         -9.8570    -0.3090     1.6350 ca         1 318      -0.111000
     19 C14         -8.5990    -0.7670     2.0650 ca         1 318      -0.097000
     20 C15         -0.3230     2.6420    -0.8050 ca         1 318      -0.026300
     21 C16          0.6330     2.8880    -1.8100 ca         1 318      -0.164000
     22 C17          1.6860     3.7860    -1.5790 ca         1 318       0.203500
     23 C18          1.7960     4.4520    -0.3510 ca         1 318      -0.198000
     24 C19          0.8440     4.2120     0.6500 ca         1 318       0.203500
     25 C20         -0.2110     3.3130     0.4280 ca         1 318      -0.164000
     26 O3           1.4530     0.2540     0.8050 o          1 318      -0.596100
     27 C21          2.5450    -0.6980    -1.1080 ca         1 318      -0.155600
     28 C22          3.8290    -0.6140    -0.5260 ca         1 318      -0.043000
     29 C23          4.9750    -1.0740    -1.2100 ca         1 318      -0.139600
     30 C24          4.8330    -1.5770    -2.5180 ca         1 318      -0.058000
     31 C25          3.5650    -1.6660    -3.1170 ca         1 318      -0.085300
     32 C26          2.4260    -1.2360    -2.4120 ca         1 318      -0.079000
     33 C27          3.4220    -2.2310    -4.5230 c3         1 318      -0.047800
     34 C28          6.3550    -0.9570    -0.6030 c          1 318       0.612700
     35 O4           7.2980    -0.6010    -1.3000 o          1 318      -0.591100
     36 N4           6.5140    -1.1590     0.7930 n          1 318      -0.404800
     37 C29          7.7450    -0.6900     1.4770 c3         1 318       0.099000
     38 C30          7.5560     0.6980     2.1180 c3         1 318      -0.097900
     39 C31          8.8150     1.2000     2.8500 c3         1 318      -0.088600
     40 C32          5.6990    -2.1680     1.5210 c3         1 318       0.099000
     41 C33          6.3560    -3.5650     1.5750 c3         1 318      -0.097900
     42 C34          5.4770    -4.6110     2.2890 c3         1 318      -0.088600
     43 HN1          0.1110    -0.6950    -1.8790 hn         1 318       0.323500
     44 H1          -1.0260     0.3870     0.6550 h1         1 318       0.096700
     45 H2          -1.9640    -1.7090    -0.0750 h1         1 318       0.088700
     46 HO1         -2.7580    -0.3200    -2.4700 ho         1 318       0.447000
     47 H3          -4.1300     0.3530    -0.6630 h1         1 318       0.089700
     48 HN2         -3.0520    -0.5080     1.9750 hn         1 318       0.418000
     49 H4          -5.1000    -0.0750     2.9490 h2         1 318       0.065700
     50 H4A         -5.6650     0.7840     1.4330 h2         1 318       0.065700
     51 H6          -1.6440     1.5450    -2.1090 hc         1 318       0.058200
     52 H6A         -2.3760     2.0380    -0.5950 hc         1 318       0.058200
     53 H8          -6.3200    -3.1530     1.3650 h1         1 318       0.068200
     54 H8A         -6.4510    -2.1510     2.8090 h1         1 318       0.068200
     55 H10         -7.7770    -2.6960    -0.6390 ha         1 318       0.115500
     56 H11        -10.0020    -1.8850    -1.3950 ha         1 318       0.115500
     57 H12        -11.3370    -0.3570     0.0550 ha         1 318       0.115000
     58 H13        -10.4370     0.3590     2.2670 ha         1 318       0.115500
     59 H14         -8.2130    -0.4470     3.0310 ha         1 318       0.115500
     60 H16          0.5690     2.3750    -2.7660 ha         1 318       0.135500
     61 H18          2.6120     5.1460    -0.1750 ha         1 318       0.150000
     62 H20         -0.9350     3.1330     1.2180 ha         1 318       0.135500
     63 H22          3.9420    -0.1730     0.4640 ha         1 318       0.137000
     64 H24          5.7120    -1.9110    -3.0650 ha         1 318       0.124000
     65 H26          1.4580    -1.3210    -2.8990 ha         1 318       0.120000
     66 H27          3.1720    -3.2980    -4.4910 hc         1 318       0.046033
     67 H27A         2.6280    -1.7170    -5.0800 hc         1 318       0.046033
     68 H27B         4.3490    -2.1210    -5.0980 hc         1 318       0.046033
     69 H29          8.0210    -1.3990     2.2670 h1         1 318       0.055200
     70 H29A         8.5860    -0.6570     0.7720 h1         1 318       0.055200
     71 H30          7.2810     1.4210     1.3400 hc         1 318       0.046450
     72 H30A         6.7200     0.6570     2.8280 hc         1 318       0.046450
     73 H31          9.6600     1.2820     2.1560 hc         1 318       0.034533
     74 H31A         8.6340     2.1890     3.2890 hc         1 318       0.034533
     75 H31B         9.0950     0.5130     3.6580 hc         1 318       0.034533
     76 H32          5.5370    -1.8090     2.5460 h1         1 318       0.055200
     77 H32A         4.7110    -2.2830     1.0640 h1         1 318       0.055200
     78 H33          6.5550    -3.9070     0.5520 hc         1 318       0.046450
     79 H33A         7.3230    -3.5090     2.0880 hc         1 318       0.046450
     80 H34          5.2830    -4.3110     3.3260 hc         1 318       0.034533
     81 H34A         4.5150    -4.7260     1.7750 hc         1 318       0.034533
     82 H34B         5.9780    -5.5860     2.3020 hc         1 318       0.034533
     83 F2           2.6020     4.0100    -2.5460 f          1 318      -0.170000
     84 C7           1.3470    -0.1970    -0.3270 c          1 318       0.615700
@<TRIPOS>BOND
     1     1    24 1   
     2     2     3 1   
     3     2    43 1   
     4     2    84 1   
     5     3     4 1   
     6     3    11 1   
     7     3    44 1   
     8     4     5 1   
     9     4     6 1   
    10     4    45 1   
    11     5    46 1   
    12     6     7 1   
    13     6    10 1   
    14     6    47 1   
    15     7     8 1   
    16     7    48 1   
    17     8     9 1   
    18     8    49 1   
    19     8    50 1   
    20     9    10 1   
    21     9    13 1   
    22    10    12 2   
    23    11    20 1   
    24    11    51 1   
    25    11    52 1   
    26    13    14 1   
    27    13    53 1   
    28    13    54 1   
    29    14    15 ar  
    30    14    19 ar  
    31    15    16 ar  
    32    15    55 1   
    33    16    17 ar  
    34    16    56 1   
    35    17    18 ar  
    36    17    57 1   
    37    18    19 ar  
    38    18    58 1   
    39    19    59 1   
    40    20    21 ar  
    41    20    25 ar  
    42    21    22 ar  
    43    21    60 1   
    44    22    23 ar  
    45    22    83 1   
    46    23    24 ar  
    47    23    61 1   
    48    24    25 ar  
    49    25    62 1   
    50    26    84 2   
    51    27    28 ar  
    52    27    32 ar  
    53    27    84 1   
    54    28    29 ar  
    55    28    63 1   
    56    29    30 ar  
    57    29    34 1   
    58    30    31 ar  
    59    30    64 1   
    60    31    32 ar  
    61    31    33 1   
    62    32    65 1   
    63    33    66 1   
    64    33    67 1   
    65    33    68 1   
    66    34    35 2   
    67    34    36 1   
    68    36    37 1   
    69    36    40 1   
    70    37    38 1   
    71    37    69 1   
    72    37    70 1   
    73    38    39 1   
    74    38    71 1   
    75    38    72 1   
    76    39    73 1   
    77    39    74 1   
    78    39    75 1   
    79    40    41 1   
    80    40    76 1   
    81    40    77 1   
    82    41    42 1   
    83    41    78 1   
    84    41    79 1   
    85    42    80 1   
    86    42    81 1   
    87    42    82 1   
@<TRIPOS>SUBSTRUCTURE
     1 318         1 TEMP              0 ****  ****    0 ROOT
