@<TRIPOS>MOLECULE
318
   84    87     1     0     0
SMALL
bcc


@<TRIPOS>ATOM
      1 F1           0.9870     3.5180     2.9570 f          1 318      -0.134900
      2 N1          -0.0460    -0.8300    -0.7150 ns         1 318      -0.561900
      3 C1          -1.2900    -0.2770    -0.2320 c3         1 318       0.080700
      4 C2          -2.4490    -1.1110    -0.8040 c3         1 318       0.151100
      5 O1          -2.3940    -1.1750    -2.2060 oh         1 318      -0.575800
      6 C3          -3.8040    -0.6140    -0.3070 c5         1 318       0.025500
      7 N2          -3.8490    -0.4690     1.1410 n7         1 318      -0.775200
      8 C4          -5.2340    -0.6950     1.4990 c5         1 318       0.305200
      9 N3          -5.7470    -1.5700     0.4570 n          1 318      -0.507800
     10 C5          -4.9820    -1.5300    -0.6490 c          1 318       0.676500
     11 C6          -1.3940     1.2210    -0.5820 c3         1 318      -0.059100
     12 O2          -5.2060    -2.0850    -1.7090 o          1 318      -0.596500
     13 C8          -7.0590    -2.1630     0.5340 c3         1 318       0.159300
     14 C9          -8.1560    -1.1270     0.5350 ca         1 318      -0.122300
     15 C10         -8.3360    -0.2920    -0.5660 ca         1 318      -0.115000
     16 C11         -9.3330     0.6710    -0.5650 ca         1 318      -0.129000
     17 C12        -10.1670     0.8120     0.5390 ca         1 318      -0.120000
     18 C13         -9.9960    -0.0150     1.6390 ca         1 318      -0.129000
     19 C14         -8.9920    -0.9790     1.6360 ca         1 318      -0.115000
     20 C15         -0.1990     1.9760    -0.0810 ca         1 318      -0.026300
     21 C16          0.9240     2.1260    -0.8880 ca         1 318      -0.182000
     22 C17          2.0490     2.7320    -0.3640 ca         1 318       0.168400
     23 C18          2.1090     3.2100     0.9300 ca         1 318      -0.216000
     24 C19          0.9690     3.0590     1.6970 ca         1 318       0.168400
     25 C20         -0.1780     2.4550     1.2250 ca         1 318      -0.182000
     26 O3           1.0890    -0.7120     1.2450 o          1 318      -0.596100
     27 C21          2.3020    -1.3180    -0.6960 ca         1 318      -0.155600
     28 C22          3.4980    -0.7150    -0.3250 ca         1 318      -0.061000
     29 C23          4.6670    -1.0300    -1.0010 ca         1 318      -0.139600
     30 C24          4.6420    -1.9650    -2.0290 ca         1 318      -0.076000
     31 C25          3.4620    -2.6080    -2.3860 ca         1 318      -0.085300
     32 C26          2.2900    -2.2600    -1.7190 ca         1 318      -0.097000
     33 C27          3.4500    -3.6630    -3.4530 c3         1 318      -0.047800
     34 C28          5.9330    -0.2730    -0.7290 c          1 318       0.679700
     35 O4           6.3410     0.5130    -1.5750 o          1 318      -0.591100
     36 N4           6.5560    -0.4880     0.4430 n          1 318      -0.471800
     37 C29          7.7530     0.2770     0.7620 c3         1 318       0.099000
     38 C30          7.4370     1.5570     1.5260 c3         1 318      -0.097900
     39 C31          8.7020     2.3180     1.8930 c3         1 318      -0.088600
     40 C32          6.1840    -1.5400     1.3780 c3         1 318       0.099000
     41 C33          6.8500    -2.8740     1.0660 c3         1 318      -0.097900
     42 C34          6.4930    -3.9330     2.0990 c3         1 318      -0.088600
     43 HN1          0.0570    -0.8980    -1.7160 hn         1 318       0.323500
     44 H1          -1.2900    -0.3800     0.8530 h1         1 318       0.096700
     45 H2          -2.3040    -2.1380    -0.4500 h1         1 318       0.088700
     46 HO1         -2.7520    -0.3640    -2.5830 ho         1 318       0.408000
     47 H3          -4.0250     0.3580    -0.7740 h1         1 318       0.089700
     48 HN2         -3.3000    -1.2130     1.5580 hn         1 318       0.362800
     49 H4          -5.3150    -1.1610     2.4810 h2         1 318       0.065700
     50 H4A         -5.7950     0.2460     1.5180 h2         1 318       0.065700
     51 H6          -1.4780     1.3460    -1.6650 hc         1 318       0.058200
     52 H6A         -2.3030     1.6250    -0.1330 hc         1 318       0.058200
     53 H8          -7.1690    -2.8380    -0.3160 h1         1 318       0.068200
     54 H8A         -7.1200    -2.7730     1.4380 h1         1 318       0.068200
     55 H10         -7.6970    -0.3990    -1.4350 ha         1 318       0.133500
     56 H11         -9.4640     1.3110    -1.4290 ha         1 318       0.133500
     57 H12        -10.9460     1.5630     0.5390 ha         1 318       0.133000
     58 H13        -10.6390     0.0880     2.5030 ha         1 318       0.133500
     59 H14         -8.8610    -1.6200     2.4990 ha         1 318       0.133500
     60 H16          0.9260     1.7740    -1.9120 ha         1 318       0.153500
     61 H18          2.9990     3.6850     1.3210 ha         1 318       0.168000
     62 H20         -1.0410     2.3490     1.8710 ha         1 318       0.153500
     63 H22          3.5060     0.0160     0.4740 ha         1 318       0.155000
     64 H24          5.5580    -2.2040    -2.5590 ha         1 318       0.142000
     65 H26          1.3640    -2.7530    -1.9950 ha         1 318       0.138000
     66 H27          3.5100    -4.6590    -3.0120 hc         1 318       0.046033
     67 H27A         2.5340    -3.6250    -4.0420 hc         1 318       0.046033
     68 H27B         4.2950    -3.5540    -4.1310 hc         1 318       0.046033
     69 H29          8.4080    -0.3590     1.3610 h1         1 318       0.055200
     70 H29A         8.2950     0.5090    -0.1540 h1         1 318       0.055200
     71 H30          6.7840     2.1880     0.9170 hc         1 318       0.046450
     72 H30A         6.8770     1.3070     2.4310 hc         1 318       0.046450
     73 H31          9.2560     2.6190     1.0020 hc         1 318       0.034533
     74 H31A         8.4700     3.2220     2.4560 hc         1 318       0.034533
     75 H31B         9.3680     1.7080     2.5050 hc         1 318       0.034533
     76 H32          6.4660    -1.2040     2.3790 h1         1 318       0.055200
     77 H32A         5.1030    -1.6650     1.3990 h1         1 318       0.055200
     78 H33          6.5390    -3.2050     0.0710 hc         1 318       0.046450
     79 H33A         7.9350    -2.7430     1.0260 hc         1 318       0.046450
     80 H34          6.8250    -3.6410     3.0970 hc         1 318       0.034533
     81 H34A         5.4150    -4.0960     2.1430 hc         1 318       0.034533
     82 H34B         6.9610    -4.8880     1.8610 hc         1 318       0.034533
     83 F2           3.1350     2.8600    -1.1390 f          1 318      -0.134900
     84 C7           1.0640    -0.9290     0.0440 c          1 318       0.682700
@<TRIPOS>BOND
     1     1    24 1   
     2     2     3 1   
     3     2    43 1   
     4     2    84 1   
     5     3     4 1   
     6     3    11 1   
     7     3    44 1   
     8     4     5 1   
     9     4     6 1   
    10     4    45 1   
    11     5    46 1   
    12     6     7 1   
    13     6    10 1   
    14     6    47 1   
    15     7     8 1   
    16     7    48 1   
    17     8     9 1   
    18     8    49 1   
    19     8    50 1   
    20     9    10 1   
    21     9    13 1   
    22    10    12 2   
    23    11    20 1   
    24    11    51 1   
    25    11    52 1   
    26    13    14 1   
    27    13    53 1   
    28    13    54 1   
    29    14    15 ar  
    30    14    19 ar  
    31    15    16 ar  
    32    15    55 1   
    33    16    17 ar  
    34    16    56 1   
    35    17    18 ar  
    36    17    57 1   
    37    18    19 ar  
    38    18    58 1   
    39    19    59 1   
    40    20    21 ar  
    41    20    25 ar  
    42    21    22 ar  
    43    21    60 1   
    44    22    23 ar  
    45    22    83 1   
    46    23    24 ar  
    47    23    61 1   
    48    24    25 ar  
    49    25    62 1   
    50    26    84 2   
    51    27    28 ar  
    52    27    32 ar  
    53    27    84 1   
    54    28    29 ar  
    55    28    63 1   
    56    29    30 ar  
    57    29    34 1   
    58    30    31 ar  
    59    30    64 1   
    60    31    32 ar  
    61    31    33 1   
    62    32    65 1   
    63    33    66 1   
    64    33    67 1   
    65    33    68 1   
    66    34    35 2   
    67    34    36 1   
    68    36    37 1   
    69    36    40 1   
    70    37    38 1   
    71    37    69 1   
    72    37    70 1   
    73    38    39 1   
    74    38    71 1   
    75    38    72 1   
    76    39    73 1   
    77    39    74 1   
    78    39    75 1   
    79    40    41 1   
    80    40    76 1   
    81    40    77 1   
    82    41    42 1   
    83    41    78 1   
    84    41    79 1   
    85    42    80 1   
    86    42    81 1   
    87    42    82 1   
@<TRIPOS>SUBSTRUCTURE
     1 318         1 TEMP              0 ****  ****    0 ROOT
