@<TRIPOS>MOLECULE
319
   45    47     1     0     0
SMALL
abcg2


@<TRIPOS>ATOM
      1 C1          -6.9120    -1.3790    -0.2550 ca         1 319      -0.064500
      2 C2          -6.8340     0.3270     1.4200 ca         1 319      -0.064500
      3 C3           1.4490     0.8370    -1.0180 ca         1 319      -0.141000
      4 C4           2.7720     1.0250    -1.3910 ca         1 319      -0.060000
      5 C5          -8.2380    -1.0730    -0.5230 ca         1 319      -0.149000
      6 C6          -8.1600     0.6500     1.1700 ca         1 319      -0.149000
      7 C7           7.2790     0.5660    -1.1830 ca         1 319      -0.242000
      8 C8           2.0150    -1.3630    -0.2180 ca         1 319      -0.216000
      9 C9           5.6950     0.8660     0.6000 ca         1 319      -0.311000
     10 C10          8.2570     0.9250    -0.2810 ca         1 319       0.406900
     11 C11         -6.1940    -0.6880     0.7150 ca         1 319      -0.095300
     12 C12          1.0590    -0.3660    -0.4280 ca         1 319       0.022000
     13 C13          3.7190     0.0380    -1.1930 ca         1 319       0.024100
     14 C14          5.9640     0.5400    -0.7130 ca         1 319       0.205100
     15 C15         -8.8380    -0.0590     0.1980 ca         1 319       0.181000
     16 C16          3.3190    -1.1480    -0.5970 ca         1 319       0.198000
     17 C17          6.7790     1.2100     1.4270 ca         1 319       0.627900
     18 C18         -3.8100    -0.1990     0.1140 c          1 319       0.612100
     19 C19         -1.3860     0.0060    -0.3190 c          1 319       0.667100
     20 C20         -4.7560    -1.0160     0.9770 c3         1 319      -0.114100
     21 N21          8.0370     1.2420     0.9920 nb         1 319      -0.763000
     22 N22          6.5720     1.4890     2.7420 nv         1 319      -1.062900
     23 N23         -0.2350    -0.6530     0.0040 ns         1 319      -0.164000
     24 N24         -2.4940    -0.5700     0.2920 ns         1 319      -0.500500
     25 O25         -4.1760     0.6730    -0.6340 o          1 319      -0.495100
     26 O26         -1.4460     0.9730    -1.0420 o          1 319      -0.546100
     27 O27          5.0110     0.1980    -1.6150 os         1 319      -0.228200
     28 F28        -10.1230     0.2420    -0.0510 f          1 319      -0.177000
     29 F29          4.2310    -2.1030    -0.3910 f          1 319      -0.158000
     30 H1          -6.4340    -2.1750    -0.8140 ha         1 319       0.115500
     31 H2          -6.2940     0.8750     2.1830 ha         1 319       0.115500
     32 H3           0.7440     1.6330    -1.1850 ha         1 319       0.158000
     33 H4           3.0710     1.9590    -1.8480 ha         1 319       0.138000
     34 H5          -8.7940    -1.6150    -1.2770 ha         1 319       0.134500
     35 H6          -8.6550     1.4380     1.7220 ha         1 319       0.134500
     36 H8           1.7440    -2.3090     0.2350 ha         1 319       0.130000
     37 H9           4.6900     0.8710     1.0000 ha         1 319       0.128000
     38 H10          9.2910     0.9610    -0.6060 h4         1 319       0.018100
     39 H20         -4.5000    -0.8350     2.0250 hc         1 319       0.066700
     40 H20A        -4.5640    -2.0780     0.8000 hc         1 319       0.066700
     41 HN22         5.6430     1.7330     3.0410 hn         1 319       0.475000
     42 HN2A         7.3130     1.9630     3.2300 hn         1 319       0.475000
     43 HN23        -0.3200    -1.5030     0.5410 hn         1 319       0.149000
     44 HN24        -2.3380    -1.3350     0.9340 hn         1 319       0.311500
     45 H7           7.5190     0.3140    -2.2070 ha         1 319       0.140000
@<TRIPOS>BOND
     1     1     5 ar  
     2     1    11 ar  
     3     1    30 1   
     4     2     6 ar  
     5     2    11 ar  
     6     2    31 1   
     7     3     4 ar  
     8     3    12 ar  
     9     3    32 1   
    10     4    13 ar  
    11     4    33 1   
    12     5    15 ar  
    13     5    34 1   
    14     6    15 ar  
    15     6    35 1   
    16     7    10 ar  
    17     7    14 ar  
    18     7    45 1   
    19     8    12 ar  
    20     8    16 ar  
    21     8    36 1   
    22     9    14 ar  
    23     9    17 ar  
    24     9    37 1   
    25    10    21 ar  
    26    10    38 1   
    27    11    20 1   
    28    12    23 1   
    29    13    16 ar  
    30    13    27 1   
    31    14    27 1   
    32    15    28 1   
    33    16    29 1   
    34    17    21 ar  
    35    17    22 1   
    36    18    20 1   
    37    18    24 1   
    38    18    25 2   
    39    19    23 1   
    40    19    24 1   
    41    19    26 2   
    42    20    39 1   
    43    20    40 1   
    44    22    41 1   
    45    22    42 1   
    46    23    43 1   
    47    24    44 1   
@<TRIPOS>SUBSTRUCTURE
     1 319         1 TEMP              0 ****  ****    0 ROOT
