@<TRIPOS>MOLECULE
319
   45    47     1     0     0
SMALL
No Charge or Current Charge


@<TRIPOS>ATOM
      1 C1          -5.6180    -1.6840     0.2860 ca         1 319      -0.064500
      2 C2          -7.1340     0.2040     0.5550 ca         1 319      -0.064500
      3 C3           1.0500     1.3570    -0.8680 ca         1 319      -0.141000
      4 C4           2.3410     1.3710    -1.4280 ca         1 319      -0.060000
      5 C5          -6.4390    -2.1960    -0.7340 ca         1 319      -0.149000
      6 C6          -7.9540    -0.3110    -0.4650 ca         1 319      -0.149000
      7 C7           6.8060    -0.2280    -1.6140 ca         1 319      -0.242000
      8 C8           1.5150    -0.7960     0.1540 ca         1 319      -0.216000
      9 C9           5.6900     0.6290     0.3340 ca         1 319      -0.311000
     10 C10          7.9750    -0.3140    -0.8470 ca         1 319       0.406900
     11 C11         -5.9620    -0.4810     0.9360 ca         1 319      -0.095300
     12 C12          0.6270     0.2730    -0.0660 ca         1 319       0.022000
     13 C13          3.2260     0.3080    -1.1900 ca         1 319       0.024100
     14 C14          5.6360     0.2440    -1.0120 ca         1 319       0.205100
     15 C15         -7.6040    -1.5090    -1.1050 ca         1 319       0.181000
     16 C16          2.8040    -0.7840    -0.4030 ca         1 319       0.198000
     17 C17          6.9050     0.4970     0.9940 ca         1 319       0.627900
     18 C18         -4.0490     1.0720     1.4610 c          1 319       0.612100
     19 C19         -1.7360     1.0610     0.5560 c          1 319       0.667100
     20 C20         -5.0690     0.0820     2.0380 c3         1 319      -0.114100
     21 N21          8.0270     0.0480     0.4550 nb         1 319      -0.763000
     22 N22          7.0840     0.8340     2.2670 nv         1 319      -1.062900
     23 N23         -0.6610     0.1860     0.5310 ns         1 319      -0.164000
     24 N24         -2.7980     0.5480     1.2520 ns         1 319      -0.500500
     25 O25         -4.3580     2.2170     1.1670 o          1 319      -0.495100
     26 O26         -1.7490     2.1610     0.0280 o          1 319      -0.546100
     27 O27          4.4820     0.3450    -1.7560 os         1 319      -0.228200
     28 F28         -8.3930    -2.0020    -2.0850 f          1 319      -0.177000
     29 F29          3.6240    -1.8380    -0.1860 f          1 319      -0.158000
     30 H1          -4.7150    -2.2220     0.5690 ha         1 319       0.115500
     31 H2          -7.4080     1.1350     1.0470 ha         1 319       0.115500
     32 H3           0.3960     2.1990    -1.0750 ha         1 319       0.158000
     33 H4           2.6570     2.2090    -2.0440 ha         1 319       0.138000
     34 H5          -6.1750    -3.1240    -1.2350 ha         1 319       0.134500
     35 H6          -8.8570     0.2170    -0.7590 ha         1 319       0.134500
     36 H8           1.2090    -1.6460     0.7590 ha         1 319       0.130000
     37 H9           4.8210     1.0200     0.8500 ha         1 319       0.128000
     38 H10          8.9020    -0.6810    -1.2870 h4         1 319       0.018100
     39 H20         -5.6870     0.6090     2.7750 hc         1 319       0.066700
     40 H20A        -4.5470    -0.7440     2.5350 hc         1 319       0.066700
     41 HN22         6.4310     1.5000     2.6640 hn         1 319       0.475000
     42 HN2A         8.0510     0.9220     2.5540 hn         1 319       0.475000
     43 HN23        -0.8140    -0.6800     1.0290 hn         1 319       0.149000
     44 HN24        -2.6720    -0.3920     1.5950 hn         1 319       0.311500
     45 H7           6.8120    -0.5290    -2.6570 ha         1 319       0.140000
@<TRIPOS>BOND
     1     1     5 ar  
     2     1    11 ar  
     3     1    30 1   
     4     2     6 ar  
     5     2    11 ar  
     6     2    31 1   
     7     3     4 ar  
     8     3    12 ar  
     9     3    32 1   
    10     4    13 ar  
    11     4    33 1   
    12     5    15 ar  
    13     5    34 1   
    14     6    15 ar  
    15     6    35 1   
    16     7    10 ar  
    17     7    14 ar  
    18     7    45 1   
    19     8    12 ar  
    20     8    16 ar  
    21     8    36 1   
    22     9    14 ar  
    23     9    17 ar  
    24     9    37 1   
    25    10    21 ar  
    26    10    38 1   
    27    11    20 1   
    28    12    23 1   
    29    13    16 ar  
    30    13    27 1   
    31    14    27 1   
    32    15    28 1   
    33    16    29 1   
    34    17    21 ar  
    35    17    22 1   
    36    18    20 1   
    37    18    24 1   
    38    18    25 2   
    39    19    23 1   
    40    19    24 1   
    41    19    26 2   
    42    20    39 1   
    43    20    40 1   
    44    22    41 1   
    45    22    42 1   
    46    23    43 1   
    47    24    44 1   
@<TRIPOS>SUBSTRUCTURE
     1 319         1 TEMP              0 ****  ****    0 ROOT
