@<TRIPOS>MOLECULE
31A
   52    54     1     0     0
SMALL
bcc


@<TRIPOS>ATOM
      1 O1          -0.7970    -0.7570    -1.5890 o          1 31A      -0.508100
      2 C9          -0.6620     0.2910    -1.0020 c          1 31A       0.701700
      3 N1           0.4830     0.6840    -0.3580 ns         1 31A      -0.512400
      4 C            1.7220     0.0530    -0.3200 c2         1 31A       0.467900
      5 C1           2.7050     0.8320     0.5350 c3         1 31A      -0.134400
      6 C2           4.0330     0.1510     0.6810 ca         1 31A      -0.062300
      7 C8           5.0560     0.4220    -0.2140 ca         1 31A      -0.155000
      8 C6           6.2890    -0.2270    -0.1100 ca         1 31A       0.143100
      9 O            7.2150     0.1160    -1.0250 os         1 31A      -0.316900
     10 C7           8.4790    -0.5140    -0.9750 c3         1 31A       0.125700
     11 C5           6.4900    -1.1600     0.9030 ca         1 31A      -0.209000
     12 C4           5.4590    -1.4290     1.7970 ca         1 31A      -0.089000
     13 C3           4.2370    -0.7860     1.6950 ca         1 31A      -0.156000
     14 N            1.9450    -1.0200    -0.9490 n2         1 31A      -0.762100
     15 C10         -1.7420     1.3250    -0.9390 ca         1 31A      -0.203600
     16 C20         -1.4940     2.6040    -1.4220 ca         1 31A      -0.071000
     17 C19         -2.4980     3.5610    -1.4600 ca         1 31A      -0.176000
     18 C18         -3.7570     3.2280    -0.9870 ca         1 31A      -0.071000
     19 C17         -4.0210     1.9610    -0.4830 ca         1 31A      -0.228000
     20 C11         -3.0160     0.9950    -0.4540 ca         1 31A       0.199100
     21 O2          -3.1560    -0.2390     0.0510 os         1 31A      -0.312900
     22 C12         -4.4340    -0.7200     0.4660 c6         1 31A       0.158100
     23 C16         -4.1980    -1.9350     1.3440 c6         1 31A      -0.132900
     24 C15         -5.5410    -2.5340     1.7700 c6         1 31A       0.150800
     25 N2          -6.4210    -2.8600     0.6600 n7         1 31A      -0.791200
     26 C14         -6.6160    -1.7210    -0.2190 c6         1 31A       0.150800
     27 C13         -5.3130    -1.0910    -0.7200 c6         1 31A      -0.132900
     28 H1           0.4120     1.5370     0.1760 hn         1 31A       0.315500
     29 H11C         2.8320     1.8240     0.0910 hc         1 31A       0.063700
     30 H12C         2.2530     0.9950     1.5180 hc         1 31A       0.063700
     31 H            2.9070    -1.3080    -0.8000 hn         1 31A       0.397400
     32 H8           4.9090     1.1510    -1.0030 ha         1 31A       0.147000
     33 H3           3.4460    -1.0040     2.4010 ha         1 31A       0.137000
     34 H5           7.4330    -1.6790     1.0150 ha         1 31A       0.137000
     35 H71C         8.4030    -1.5950    -1.1160 h1         1 31A       0.042033
     36 H72C         9.0660    -0.0960    -1.7890 h1         1 31A       0.042033
     37 H73C         8.9970    -0.3180    -0.0320 h1         1 31A       0.042033
     38 H4           5.6220    -2.1520     2.5850 ha         1 31A       0.133000
     39 H20         -0.5070     2.8510    -1.7940 ha         1 31A       0.136000
     40 H19         -2.2960     4.5480    -1.8530 ha         1 31A       0.138000
     41 H18         -4.5540     3.9590    -1.0050 ha         1 31A       0.131000
     42 H17         -5.0140     1.7490    -0.1130 ha         1 31A       0.139000
     43 H12         -4.9370     0.0460     1.0720 h1         1 31A       0.041700
     44 H161        -3.6230    -2.6830     0.7880 hc         1 31A       0.062950
     45 H162        -3.6140    -1.6590     2.2260 hc         1 31A       0.062950
     46 H131        -5.5440    -0.2210    -1.3400 hc         1 31A       0.062950
     47 H132        -4.7760    -1.8050    -1.3530 hc         1 31A       0.062950
     48 H151        -5.3730    -3.4330     2.3640 h1         1 31A       0.054200
     49 H152        -6.0640    -1.8230     2.4190 h1         1 31A       0.054200
     50 H2          -6.0120    -3.6200     0.1280 hn         1 31A       0.353800
     51 H141        -7.2280    -2.0280    -1.0690 h1         1 31A       0.054200
     52 H142        -7.1940    -0.9650     0.3240 h1         1 31A       0.054200
@<TRIPOS>BOND
     1     1     2 2   
     2     2     3 1   
     3     2    15 1   
     4     3     4 1   
     5     3    28 1   
     6     4     5 1   
     7     4    14 2   
     8     5     6 1   
     9     5    29 1   
    10     5    30 1   
    11     6     7 ar  
    12     6    13 ar  
    13     7     8 ar  
    14     7    32 1   
    15     8     9 1   
    16     8    11 ar  
    17     9    10 1   
    18    10    35 1   
    19    10    36 1   
    20    10    37 1   
    21    11    12 ar  
    22    11    34 1   
    23    12    13 ar  
    24    12    38 1   
    25    13    33 1   
    26    14    31 1   
    27    15    16 ar  
    28    15    20 ar  
    29    16    17 ar  
    30    16    39 1   
    31    17    18 ar  
    32    17    40 1   
    33    18    19 ar  
    34    18    41 1   
    35    19    20 ar  
    36    19    42 1   
    37    20    21 1   
    38    21    22 1   
    39    22    23 1   
    40    22    27 1   
    41    22    43 1   
    42    23    24 1   
    43    23    44 1   
    44    23    45 1   
    45    24    25 1   
    46    24    48 1   
    47    24    49 1   
    48    25    26 1   
    49    25    50 1   
    50    26    27 1   
    51    26    51 1   
    52    26    52 1   
    53    27    46 1   
    54    27    47 1   
@<TRIPOS>SUBSTRUCTURE
     1 31A         1 TEMP              0 ****  ****    0 ROOT
