@<TRIPOS>MOLECULE
31A
   52    54     1     0     0
SMALL
No Charge or Current Charge


@<TRIPOS>ATOM
      1 O1          -0.8840    -0.9990    -0.4470 o          1 31A      -0.508100
      2 C9          -0.6660     0.2010    -0.3480 c          1 31A       0.634700
      3 N1           0.5950     0.7180    -0.1420 ns         1 31A      -0.445400
      4 C            1.8140     0.0610    -0.0160 c2         1 31A       0.467900
      5 C1           2.9110     0.9690     0.5070 c3         1 31A      -0.134400
      6 C2           4.2810     0.3050     0.6250 ca         1 31A      -0.062300
      7 C8           5.1920     0.3590    -0.4470 ca         1 31A      -0.137000
      8 C6           6.4520    -0.2540    -0.3500 ca         1 31A       0.143100
      9 O            7.2990    -0.1650    -1.4360 os         1 31A      -0.340100
     10 C7           8.6100    -0.7580    -1.4380 c3         1 31A       0.148900
     11 C5           6.8070    -0.9330     0.8370 ca         1 31A      -0.191000
     12 C4           5.9000    -0.9900     1.9090 ca         1 31A      -0.071000
     13 C3           4.6420    -0.3730     1.8030 ca         1 31A      -0.138000
     14 N            2.0170    -1.1530    -0.3600 n2         1 31A      -0.762100
     15 C10         -1.7530     1.2460    -0.5000 ca         1 31A      -0.203600
     16 C20         -1.4370     2.5210    -1.0330 ca         1 31A      -0.053000
     17 C19         -2.4320     3.4970    -1.1940 ca         1 31A      -0.158000
     18 C18         -3.7530     3.2240    -0.8250 ca         1 31A      -0.053000
     19 C17         -4.0840     1.9680    -0.2960 ca         1 31A      -0.210000
     20 C11         -3.0950     0.9670    -0.1370 ca         1 31A       0.199100
     21 O2          -3.3940    -0.2590     0.4320 os         1 31A      -0.336100
     22 C12         -4.7420    -0.7630     0.5440 c6         1 31A       0.181300
     23 C16         -4.7310    -2.0420     1.4120 c6         1 31A      -0.132900
     24 C15         -6.1420    -2.6670     1.4930 c6         1 31A       0.150800
     25 N2          -6.6710    -2.9460     0.1380 n7         1 31A      -0.846400
     26 C14         -6.7330    -1.7360    -0.7160 c6         1 31A       0.150800
     27 C13         -5.3380    -1.0860    -0.8510 c6         1 31A      -0.132900
     28 H1           0.6240     1.7180    -0.0220 hn         1 31A       0.315500
     29 H11C         2.9910     1.8490    -0.1430 hc         1 31A       0.063700
     30 H12C         2.6140     1.3590     1.4890 hc         1 31A       0.063700
     31 H            3.0080    -1.3720    -0.1830 hn         1 31A       0.397400
     32 H8           4.9250     0.8790    -1.3640 ha         1 31A       0.129000
     33 H3           3.9480    -0.4250     2.6390 ha         1 31A       0.119000
     34 H5           7.7720    -1.4180     0.9440 ha         1 31A       0.119000
     35 H71C         8.5470    -1.8440    -1.2970 h1         1 31A       0.042033
     36 H72C         9.1120    -0.5680    -2.3950 h1         1 31A       0.042033
     37 H73C         9.2310    -0.3340    -0.6380 h1         1 31A       0.042033
     38 H4           6.1720    -1.5130     2.8240 ha         1 31A       0.115000
     39 H20         -0.4260     2.7630    -1.3540 ha         1 31A       0.118000
     40 H19         -2.1760     4.4700    -1.6100 ha         1 31A       0.120000
     41 H18         -4.5220     3.9850    -0.9460 ha         1 31A       0.113000
     42 H17         -5.1140     1.7980    -0.0050 ha         1 31A       0.121000
     43 H12         -5.3680    -0.0190     1.0590 h1         1 31A       0.041700
     44 H161        -4.0240    -2.7720     0.9940 hc         1 31A       0.062950
     45 H162        -4.3760    -1.8020     2.4230 hc         1 31A       0.062950
     46 H131        -5.4220    -0.1760    -1.4580 hc         1 31A       0.062950
     47 H132        -4.6650    -1.7620    -1.3950 hc         1 31A       0.062950
     48 H151        -6.1000    -3.6000     2.0760 h1         1 31A       0.054200
     49 H152        -6.8200    -1.9780     2.0210 h1         1 31A       0.054200
     50 H2          -6.0550    -3.6320    -0.3160 hn         1 31A       0.409000
     51 H141        -7.1150    -2.0040    -1.7130 h1         1 31A       0.054200
     52 H142        -7.4360    -1.0110    -0.2780 h1         1 31A       0.054200
@<TRIPOS>BOND
     1     1     2 2   
     2     2     3 1   
     3     2    15 1   
     4     3     4 1   
     5     3    28 1   
     6     4     5 1   
     7     4    14 2   
     8     5     6 1   
     9     5    29 1   
    10     5    30 1   
    11     6     7 ar  
    12     6    13 ar  
    13     7     8 ar  
    14     7    32 1   
    15     8     9 1   
    16     8    11 ar  
    17     9    10 1   
    18    10    35 1   
    19    10    36 1   
    20    10    37 1   
    21    11    12 ar  
    22    11    34 1   
    23    12    13 ar  
    24    12    38 1   
    25    13    33 1   
    26    14    31 1   
    27    15    16 ar  
    28    15    20 ar  
    29    16    17 ar  
    30    16    39 1   
    31    17    18 ar  
    32    17    40 1   
    33    18    19 ar  
    34    18    41 1   
    35    19    20 ar  
    36    19    42 1   
    37    20    21 1   
    38    21    22 1   
    39    22    23 1   
    40    22    27 1   
    41    22    43 1   
    42    23    24 1   
    43    23    44 1   
    44    23    45 1   
    45    24    25 1   
    46    24    48 1   
    47    24    49 1   
    48    25    26 1   
    49    25    50 1   
    50    26    27 1   
    51    26    51 1   
    52    26    52 1   
    53    27    46 1   
    54    27    47 1   
@<TRIPOS>SUBSTRUCTURE
     1 31A         1 TEMP              0 ****  ****    0 ROOT
