@<TRIPOS>MOLECULE
31B
   89    92     1     0     0
SMALL
No Charge or Current Charge


@<TRIPOS>ATOM
      1 O13         62.3500    66.6940    36.8630 o          1 31B      -0.503000
      2 C21         61.2220    67.1340    37.0500 c          1 31B       0.606700
      3 C22         60.0400    66.2460    37.3660 ca         1 31B      -0.145600
      4 C27         60.2110    64.8450    37.4330 ca         1 31B      -0.054500
      5 C26         59.1220    64.0050    37.7280 ca         1 31B      -0.129000
      6 C25         57.8510    64.5530    37.9620 ca         1 31B      -0.084000
      7 C24         57.6690    65.9430    37.8990 ca         1 31B      -0.129000
      8 C23         58.7540    66.7870    37.6040 ca         1 31B      -0.054500
      9 O12         60.9060    68.4690    36.9840 os         1 31B      -0.437100
     10 C20         61.9580    69.4380    36.7660 c3         1 31B       0.137600
     11 C19         62.8100    69.5890    38.0540 c3         1 31B       0.078000
     12 N6          62.0120    69.8960    39.2520 ns         1 31B      -0.513900
     13 C18         61.3680    71.0910    39.4810 c          1 31B       0.601100
     14 O11         61.4410    72.0320    38.7040 o          1 31B      -0.608100
     15 C17         60.5320    71.1410    40.7560 c3         1 31B      -0.186400
     16 C16         61.2150    72.0250    41.8150 c3         1 31B       0.118000
     17 N5          60.4570    72.0520    43.0640 ns         1 31B      -0.506900
     18 C15         59.3080    72.7780    43.2910 c          1 31B       0.599100
     19 O10         58.8690    73.5660    42.4600 o          1 31B      -0.637100
     20 C14         58.6760    72.5700    44.7140 c3         1 31B       0.125300
     21 O9          59.6660    72.1210    45.6870 oh         1 31B      -0.764000
     22 C1          57.4320    71.6020    44.7220 c3         1 31B      -0.094000
     23 C           56.3000    72.1610    43.8110 c3         1 31B      -0.074600
     24 C2          57.8400    70.2060    44.1650 c3         1 31B      -0.074600
     25 C3          56.8420    71.3780    46.1590 c3         1 31B       0.246600
     26 O           56.3460    72.5910    46.7530 os         1 31B      -0.608400
     27 P           57.2350    73.4860    47.7550 p5         1 31B       1.489800
     28 O1          56.6100    73.6110    49.1030 o          1 31B      -0.835000
     29 O2          58.6130    72.9200    47.8630 o          1 31B      -0.835000
     30 O3          57.3260    74.8010    46.8980 os         1 31B      -0.718800
     31 P1          56.1960    75.8380    47.2380 p5         1 31B       1.470800
     32 O4          54.8050    75.3060    47.1510 o          1 31B      -0.818000
     33 O5          56.4700    76.6050    48.4870 o          1 31B      -0.818000
     34 C4          56.0130    76.3720    44.6670 c3         1 31B       0.231600
     35 C5          54.7700    77.1740    44.1580 c5         1 31B       0.089300
     36 C13         53.3390    76.7720    44.6470 c5         1 31B       0.192300
     37 O8          54.8380    78.5880    44.4560 os         1 31B      -0.447000
     38 C12         52.5590    77.9320    43.9500 c5         1 31B       0.142300
     39 O7          51.2480    78.0650    44.5110 oh         1 31B      -0.663000
     40 C6          53.5280    79.1650    44.1690 c5         1 31B       0.124000
     41 O6          56.4480    76.7940    45.9720 os         1 31B      -0.603400
     42 C7          53.0970    80.0860    45.3070 cc         1 31B       0.421800
     43 N4          53.0580    79.6380    46.6210 na         1 31B      -0.346300
     44 C11         52.6830    80.6680    47.4240 ca         1 31B       0.127500
     45 C8          52.5120    81.7330    46.5730 ca         1 31B      -0.093600
     46 N           52.7760    81.3950    45.2370 nd         1 31B      -0.614100
     47 N3          52.4920    80.7610    48.7540 nb         1 31B      -0.136000
     48 C10         52.1180    81.9840    49.2030 ca         1 31B       0.140900
     49 N2          51.9230    83.1000    48.4560 nb         1 31B      -0.328000
     50 C9          52.1190    82.9680    47.1340 ca         1 31B       0.421900
     51 N1          51.9260    84.0900    46.3890 nv         1 31B      -1.090900
     52 O14         53.1260    76.8190    46.0740 oh         1 31B      -0.763000
     53 H1          61.1890    64.4010    37.2560 ha         1 31B       0.134500
     54 H2          59.2660    62.9280    37.7770 ha         1 31B       0.117500
     55 H3          57.0100    63.9010    38.1900 ha         1 31B       0.112000
     56 H4          56.6840    66.3690    38.0800 ha         1 31B       0.117500
     57 H5          58.5850    67.8620    37.5630 ha         1 31B       0.134500
     58 H6          62.6000    69.1480    35.9230 h1         1 31B       0.073700
     59 H7          61.5190    70.4130    36.5210 h1         1 31B       0.073700
     60 H8          63.3740    68.6650    38.2360 h1         1 31B       0.063700
     61 H9          63.5430    70.3920    37.9030 h1         1 31B       0.063700
     62 H10         61.8810    69.1680    39.9450 hn         1 31B       0.316500
     63 H11         59.5530    71.5720    40.5190 hc         1 31B       0.066200
     64 H12         60.4070    70.1340    41.1690 hc         1 31B       0.066200
     65 H13         62.2210    71.6370    42.0260 h1         1 31B       0.055700
     66 H14         61.3210    73.0510    41.4350 h1         1 31B       0.055700
     67 H15         60.7690    71.4940    43.8530 hn         1 31B       0.341500
     68 H16         58.3250    73.5720    44.9910 h1         1 31B       0.086700
     69 H17         59.3170    72.4130    46.5950 ho         1 31B       0.553000
     70 H18         55.4020    71.5350    43.8760 hc         1 31B       0.026533
     71 H19         56.0200    73.1770    44.1070 hc         1 31B       0.026533
     72 H20         56.6040    72.1860    42.7580 hc         1 31B       0.026533
     73 H21         56.9860    69.5160    44.1760 hc         1 31B       0.026533
     74 H22         58.1920    70.2720    43.1280 hc         1 31B       0.026533
     75 H23         58.6380    69.7550    44.7660 hc         1 31B       0.026533
     76 H24         56.0140    70.6610    46.0840 h1         1 31B       0.017700
     77 H25         57.5940    70.8990    46.8010 h1         1 31B       0.017700
     78 H28         55.7690    75.3020    44.6490 h1         1 31B       0.040200
     79 H29         56.8290    76.5220    43.9490 h1         1 31B       0.040200
     80 H30         54.7930    77.0750    43.0630 h1         1 31B       0.028700
     81 H31         53.0440    75.7920    44.2480 h1         1 31B       0.032700
     82 H32         52.4720    77.7280    42.8740 h1         1 31B       0.012700
     83 H33         51.3270    77.6140    45.3860 ho         1 31B       0.483000
     84 H34         53.6040    79.7470    43.2420 h1         1 31B       0.054700
     85 H35         53.2410    78.6770    46.8930 hn         1 31B       0.432000
     86 H37         51.9590    82.0810    50.2750 h5         1 31B       0.032100
     87 H38         51.9300    84.9870    46.8670 hn         1 31B       0.484500
     88 H39         52.2700    84.0740    45.4320 hn         1 31B       0.484500
     89 H40         53.7560    76.1300    46.4900 ho         1 31B       0.596000
@<TRIPOS>BOND
     1     1     2 2   
     2     2     3 1   
     3     2     9 1   
     4     3     4 ar  
     5     3     8 ar  
     6     4     5 ar  
     7     4    53 1   
     8     5     6 ar  
     9     5    54 1   
    10     6     7 ar  
    11     6    55 1   
    12     7     8 ar  
    13     7    56 1   
    14     8    57 1   
    15     9    10 1   
    16    10    11 1   
    17    10    58 1   
    18    10    59 1   
    19    11    12 1   
    20    11    60 1   
    21    11    61 1   
    22    12    13 1   
    23    12    62 1   
    24    13    14 2   
    25    13    15 1   
    26    15    16 1   
    27    15    63 1   
    28    15    64 1   
    29    16    17 1   
    30    16    65 1   
    31    16    66 1   
    32    17    18 1   
    33    17    67 1   
    34    18    19 2   
    35    18    20 1   
    36    20    21 1   
    37    20    22 1   
    38    20    68 1   
    39    21    69 1   
    40    22    23 1   
    41    22    24 1   
    42    22    25 1   
    43    23    70 1   
    44    23    71 1   
    45    23    72 1   
    46    24    73 1   
    47    24    74 1   
    48    24    75 1   
    49    25    26 1   
    50    25    76 1   
    51    25    77 1   
    52    26    27 1   
    53    27    28 1   
    54    27    29 1   
    55    27    30 1   
    56    30    31 1   
    57    31    32 1   
    58    31    33 1   
    59    31    41 1   
    60    34    35 1   
    61    34    41 1   
    62    34    78 1   
    63    34    79 1   
    64    35    36 1   
    65    35    37 1   
    66    35    80 1   
    67    36    38 1   
    68    36    52 1   
    69    36    81 1   
    70    37    40 1   
    71    38    39 1   
    72    38    40 1   
    73    38    82 1   
    74    39    83 1   
    75    40    42 1   
    76    40    84 1   
    77    42    43 1   
    78    42    46 2   
    79    43    44 1   
    80    43    85 1   
    81    44    45 ar  
    82    44    47 ar  
    83    45    46 1   
    84    45    50 ar  
    85    47    48 ar  
    86    48    49 ar  
    87    48    86 1   
    88    49    50 ar  
    89    50    51 1   
    90    51    87 1   
    91    51    88 1   
    92    52    89 1   
@<TRIPOS>SUBSTRUCTURE
     1 31B         1 TEMP              0 ****  ****    0 ROOT
