@<TRIPOS>MOLECULE
31B
   89    92     1     0     0
SMALL
abcg2


@<TRIPOS>ATOM
      1 O13         61.9870    67.1580    36.2950 o          1 31B      -0.503000
      2 C21         60.9510    67.2870    36.9000 c          1 31B       0.606700
      3 C22         60.0900    66.1470    37.3040 ca         1 31B      -0.145600
      4 C27         60.4680    64.8660    36.9050 ca         1 31B      -0.054500
      5 C26         59.7010    63.7690    37.2600 ca         1 31B      -0.129000
      6 C25         58.5520    63.9430    38.0210 ca         1 31B      -0.084000
      7 C24         58.1730    65.2160    38.4250 ca         1 31B      -0.129000
      8 C23         58.9360    66.3170    38.0690 ca         1 31B      -0.054500
      9 O12         60.4540    68.4590    37.2720 os         1 31B      -0.437100
     10 C20         61.2080    69.6430    36.9930 c3         1 31B       0.137600
     11 C19         62.2500    69.9030    38.0680 c3         1 31B       0.078000
     12 N6          61.6790    70.0670    39.3830 ns         1 31B      -0.513900
     13 C18         61.1950    71.2390    39.8310 c          1 31B       0.601100
     14 O11         61.2660    72.2740    39.1830 o          1 31B      -0.608100
     15 C17         60.5390    71.1950    41.1940 c3         1 31B      -0.186400
     16 C16         60.9600    72.3710    42.0770 c3         1 31B       0.118000
     17 N5          60.2320    72.4010    43.3220 ns         1 31B      -0.506900
     18 C15         59.0140    72.9500    43.4380 c          1 31B       0.599100
     19 O10         58.4660    73.5500    42.5210 o          1 31B      -0.637100
     20 C14         58.3400    72.7730    44.7970 c3         1 31B       0.125300
     21 O9          59.3150    72.4430    45.7440 oh         1 31B      -0.764000
     22 C1          57.2010    71.7130    44.7260 c3         1 31B      -0.094000
     23 C           56.0600    72.1760    43.8190 c3         1 31B      -0.074600
     24 C2          57.7370    70.3700    44.2230 c3         1 31B      -0.074600
     25 C3          56.6430    71.4540    46.1330 c3         1 31B       0.246600
     26 O           56.0500    72.5990    46.7210 os         1 31B      -0.608400
     27 P           56.7260    73.4150    47.9660 p5         1 31B       1.489800
     28 O1          55.8700    73.2930    49.1800 o          1 31B      -0.835000
     29 O2          58.2000    73.0900    48.0300 o          1 31B      -0.835000
     30 O3          56.6390    74.9410    47.3730 os         1 31B      -0.718800
     31 P1          55.3860    75.9940    47.4510 p5         1 31B       1.470800
     32 O4          54.1240    75.3000    47.0000 o          1 31B      -0.818000
     33 O5          55.4320    76.7870    48.7090 o          1 31B      -0.818000
     34 C4          55.9940    76.5180    44.9220 c3         1 31B       0.231600
     35 C5          55.0670    77.2090    43.9450 c5         1 31B       0.089300
     36 C13         53.5470    77.0300    44.0810 c5         1 31B       0.192300
     37 O8          55.3180    78.6160    43.9600 os         1 31B      -0.447000
     38 C12         53.0880    78.2850    43.3450 c5         1 31B       0.142300
     39 O7          51.7510    78.5780    43.5810 oh         1 31B      -0.663000
     40 C6          54.1150    79.3340    43.8390 c5         1 31B       0.124000
     41 O6          55.8830    77.0040    46.2510 os         1 31B      -0.603400
     42 C7          53.7700    79.9840    45.1440 cc         1 31B       0.421800
     43 N4          54.3570    79.6080    46.3140 na         1 31B      -0.346300
     44 C11         53.8350    80.3890    47.2920 ca         1 31B       0.127500
     45 C8          52.9480    81.2350    46.6370 ca         1 31B      -0.093600
     46 N           52.9290    80.9710    45.2910 nd         1 31B      -0.614100
     47 N3          54.0960    80.3800    48.6000 nb         1 31B      -0.136000
     48 C10         53.3970    81.2970    49.2440 ca         1 31B       0.140900
     49 N2          52.5190    82.1690    48.7520 nb         1 31B      -0.328000
     50 C9          52.2670    82.1650    47.4390 ca         1 31B       0.421900
     51 N1          51.3700    83.0270    46.9440 nv         1 31B      -1.090900
     52 O14         53.0170    77.0640    45.3660 oh         1 31B      -0.763000
     53 H1          61.3630    64.7270    36.3140 ha         1 31B       0.134500
     54 H2          59.9990    62.7780    36.9440 ha         1 31B       0.117500
     55 H3          57.9530    63.0850    38.3010 ha         1 31B       0.112000
     56 H4          57.2800    65.3530    39.0210 ha         1 31B       0.117500
     57 H5          58.6290    67.3020    38.3920 ha         1 31B       0.134500
     58 H6          61.6830    69.5840    36.0130 h1         1 31B       0.073700
     59 H7          60.4770    70.4490    36.9700 h1         1 31B       0.073700
     60 H8          62.9730    69.0890    38.1080 h1         1 31B       0.063700
     61 H9          62.8000    70.8030    37.7930 h1         1 31B       0.063700
     62 H10         61.5660    69.2450    39.9530 hn         1 31B       0.316500
     63 H11         59.4570    71.2390    41.0330 hc         1 31B       0.066200
     64 H12         60.7440    70.2530    41.7050 hc         1 31B       0.066200
     65 H13         62.0230    72.3010    42.3100 h1         1 31B       0.055700
     66 H14         60.8070    73.3100    41.5480 h1         1 31B       0.055700
     67 H15         60.6140    71.9240    44.1230 hn         1 31B       0.341500
     68 H16         57.8770    73.7450    45.0240 h1         1 31B       0.086700
     69 H17         58.9660    72.6780    46.6410 ho         1 31B       0.553000
     70 H18         55.2260    71.4740    43.8820 hc         1 31B       0.026533
     71 H19         55.6840    73.1610    44.1010 hc         1 31B       0.026533
     72 H20         56.3660    72.2250    42.7770 hc         1 31B       0.026533
     73 H21         56.9610    69.6040    44.2780 hc         1 31B       0.026533
     74 H22         58.0540    70.4260    43.1810 hc         1 31B       0.026533
     75 H23         58.5850    70.0220    44.8150 hc         1 31B       0.026533
     76 H24         55.8580    70.6970    46.0430 h1         1 31B       0.017700
     77 H25         57.4160    71.0250    46.7770 h1         1 31B       0.017700
     78 H28         55.8130    75.4410    44.8520 h1         1 31B       0.040200
     79 H29         57.0240    76.6800    44.5930 h1         1 31B       0.040200
     80 H30         55.3420    76.8090    42.9580 h1         1 31B       0.028700
     81 H31         53.2520    76.1210    43.5380 h1         1 31B       0.032700
     82 H32         53.2860    78.1370    42.2730 h1         1 31B       0.012700
     83 H33         51.4900    79.3030    43.0040 ho         1 31B       0.483000
     84 H34         54.2310    80.1280    43.0940 h1         1 31B       0.054700
     85 H35         54.9990    78.8290    46.4280 hn         1 31B       0.432000
     86 H37         53.5550    81.3520    50.3170 h5         1 31B       0.032100
     87 H38         50.9710    83.7330    47.5390 hn         1 31B       0.484500
     88 H39         51.2310    83.1110    45.9530 hn         1 31B       0.484500
     89 H40         53.3640    76.3210    45.9130 ho         1 31B       0.596000
@<TRIPOS>BOND
     1     1     2 2   
     2     2     3 1   
     3     2     9 1   
     4     3     4 ar  
     5     3     8 ar  
     6     4     5 ar  
     7     4    53 1   
     8     5     6 ar  
     9     5    54 1   
    10     6     7 ar  
    11     6    55 1   
    12     7     8 ar  
    13     7    56 1   
    14     8    57 1   
    15     9    10 1   
    16    10    11 1   
    17    10    58 1   
    18    10    59 1   
    19    11    12 1   
    20    11    60 1   
    21    11    61 1   
    22    12    13 1   
    23    12    62 1   
    24    13    14 2   
    25    13    15 1   
    26    15    16 1   
    27    15    63 1   
    28    15    64 1   
    29    16    17 1   
    30    16    65 1   
    31    16    66 1   
    32    17    18 1   
    33    17    67 1   
    34    18    19 2   
    35    18    20 1   
    36    20    21 1   
    37    20    22 1   
    38    20    68 1   
    39    21    69 1   
    40    22    23 1   
    41    22    24 1   
    42    22    25 1   
    43    23    70 1   
    44    23    71 1   
    45    23    72 1   
    46    24    73 1   
    47    24    74 1   
    48    24    75 1   
    49    25    26 1   
    50    25    76 1   
    51    25    77 1   
    52    26    27 1   
    53    27    28 1   
    54    27    29 1   
    55    27    30 1   
    56    30    31 1   
    57    31    32 1   
    58    31    33 1   
    59    31    41 1   
    60    34    35 1   
    61    34    41 1   
    62    34    78 1   
    63    34    79 1   
    64    35    36 1   
    65    35    37 1   
    66    35    80 1   
    67    36    38 1   
    68    36    52 1   
    69    36    81 1   
    70    37    40 1   
    71    38    39 1   
    72    38    40 1   
    73    38    82 1   
    74    39    83 1   
    75    40    42 1   
    76    40    84 1   
    77    42    43 1   
    78    42    46 2   
    79    43    44 1   
    80    43    85 1   
    81    44    45 ar  
    82    44    47 ar  
    83    45    46 1   
    84    45    50 ar  
    85    47    48 ar  
    86    48    49 ar  
    87    48    86 1   
    88    49    50 ar  
    89    50    51 1   
    90    51    87 1   
    91    51    88 1   
    92    52    89 1   
@<TRIPOS>SUBSTRUCTURE
     1 31B         1 TEMP              0 ****  ****    0 ROOT
