@<TRIPOS>MOLECULE
31D
   54    56     1     0     0
SMALL
abcg2


@<TRIPOS>ATOM
      1 CAZ         -4.5040     4.1360    -0.1150 c3         1 31D      -0.082433
      2 CAY         -5.4810     2.9700     0.0870 c3         1 31D      -0.003700
      3 CBA         -6.1110     3.0650     1.4840 c3         1 31D      -0.082433
      4 CBB         -6.5960     3.0910    -0.9520 c3         1 31D      -0.082433
      5 CAV         -4.7250     1.6540    -0.0310 ca         1 31D      -0.042300
      6 CAW         -3.6540     1.3890     0.8270 ca         1 31D      -0.123000
      7 CAX         -2.9420     0.2050     0.7580 ca         1 31D      -0.064000
      8 CAU         -5.0540     0.6700    -0.9620 ca         1 31D      -0.123000
      9 CAT         -4.3510    -0.5230    -1.0310 ca         1 31D      -0.064000
     10 CAR         -3.2790    -0.7710    -0.1810 ca         1 31D      -0.157600
     11 CAQ         -2.5730    -2.0790    -0.3020 c          1 31D       0.627700
     12 OAS         -3.1010    -3.0350    -0.8440 o          1 31D      -0.600100
     13 NAP         -1.3150    -2.0990     0.2150 ns         1 31D      -0.154000
     14 CAD         -0.4260    -3.1680     0.2870 ca         1 31D       0.036000
     15 CAC         -0.8530    -4.4980     0.2560 ca         1 31D      -0.150000
     16 CAB          0.0580    -5.5340     0.3730 ca         1 31D      -0.071000
     17 CAA          1.4120    -5.2770     0.5290 ca         1 31D      -0.154000
     18 CAF          1.8450    -3.9640     0.5530 ca         1 31D      -0.064000
     19 CAE          0.9540    -2.8990     0.4180 ca         1 31D      -0.203600
     20 CAG          1.4650    -1.4980     0.4710 c          1 31D       0.618700
     21 OAI          0.7920    -0.5770     0.9230 o          1 31D      -0.631100
     22 NAH          2.7120    -1.3240    -0.0190 ns         1 31D      -0.117000
     23 CAJ          3.4700    -0.1450    -0.0620 ca         1 31D      -0.082000
     24 CAK          4.4890    -0.0830    -1.0130 ca         1 31D      -0.162500
     25 CAL          5.3060     1.0300    -1.0970 ca         1 31D      -0.071000
     26 CAM          5.1330     2.1170    -0.2430 ca         1 31D      -0.138600
     27 CBC          6.0290     3.3420    -0.3410 c          1 31D       0.713600
     28 OBE          5.7900     4.2750     0.4500 o          1 31D      -0.719500
     29 OBD          6.9270     3.3100    -1.2060 o          1 31D      -0.719500
     30 CAN          4.1170     2.0390     0.7040 ca         1 31D      -0.071000
     31 CAO          3.2910     0.9300     0.8080 ca         1 31D      -0.162500
     32 H1          -3.7190     4.1540     0.6420 hc         1 31D       0.035700
     33 H2          -4.0240     4.0850    -1.0940 hc         1 31D       0.035700
     34 H3          -5.0380     5.0870    -0.0560 hc         1 31D       0.035700
     35 H4          -6.6390     4.0150     1.5930 hc         1 31D       0.035700
     36 H5          -6.8320     2.2610     1.6460 hc         1 31D       0.035700
     37 H6          -5.3640     3.0090     2.2770 hc         1 31D       0.035700
     38 H7          -6.2090     3.0620    -1.9720 hc         1 31D       0.035700
     39 H8          -7.3400     2.3000    -0.8470 hc         1 31D       0.035700
     40 H9          -7.1110     4.0440    -0.8260 hc         1 31D       0.035700
     41 H10         -3.3680     2.1170     1.5750 ha         1 31D       0.115000
     42 H11         -2.1400     0.0540     1.4690 ha         1 31D       0.129500
     43 H12         -5.8710     0.8180    -1.6530 ha         1 31D       0.115000
     44 H13         -4.6410    -1.2660    -1.7630 ha         1 31D       0.129500
     45 H14         -0.9060    -1.2190     0.5070 hn         1 31D       0.201000
     46 H15         -1.9000    -4.7300     0.1560 ha         1 31D       0.142000
     47 H16         -0.3020    -6.5540     0.3560 ha         1 31D       0.109000
     48 H17          2.1210    -6.0850     0.6410 ha         1 31D       0.113000
     49 H18          2.8990    -3.7700     0.7060 ha         1 31D       0.118000
     50 H19          3.1110    -2.0980    -0.5280 hn         1 31D       0.146000
     51 H20          4.6420    -0.9140    -1.6920 ha         1 31D       0.100000
     52 H21          6.0900     1.0550    -1.8410 ha         1 31D       0.129500
     53 H23          3.9650     2.8640     1.3870 ha         1 31D       0.129500
     54 H24          2.5280     0.9120     1.5690 ha         1 31D       0.100000
@<TRIPOS>BOND
     1     1     2 1   
     2     1    32 1   
     3     1    33 1   
     4     1    34 1   
     5     2     3 1   
     6     2     4 1   
     7     2     5 1   
     8     3    35 1   
     9     3    36 1   
    10     3    37 1   
    11     4    38 1   
    12     4    39 1   
    13     4    40 1   
    14     5     6 ar  
    15     5     8 ar  
    16     6     7 ar  
    17     6    41 1   
    18     7    10 ar  
    19     7    42 1   
    20     8     9 ar  
    21     8    43 1   
    22     9    10 ar  
    23     9    44 1   
    24    10    11 1   
    25    11    12 2   
    26    11    13 1   
    27    13    14 1   
    28    13    45 1   
    29    14    15 ar  
    30    14    19 ar  
    31    15    16 ar  
    32    15    46 1   
    33    16    17 ar  
    34    16    47 1   
    35    17    18 ar  
    36    17    48 1   
    37    18    19 ar  
    38    18    49 1   
    39    19    20 1   
    40    20    21 2   
    41    20    22 1   
    42    22    23 1   
    43    22    50 1   
    44    23    24 ar  
    45    23    31 ar  
    46    24    25 ar  
    47    24    51 1   
    48    25    26 ar  
    49    25    52 1   
    50    26    27 1   
    51    26    30 ar  
    52    27    28 1   
    53    27    29 1   
    54    30    31 ar  
    55    30    53 1   
    56    31    54 1   
@<TRIPOS>SUBSTRUCTURE
     1 31D         1 TEMP              0 ****  ****    0 ROOT
