@<TRIPOS>MOLECULE
31D
   54    56     1     0     0
SMALL
No Charge or Current Charge


@<TRIPOS>ATOM
      1 CAZ         -4.8480     4.1150    -0.5650 c3         1 31D      -0.082433
      2 CAY         -5.6430     3.0010     0.1680 c3         1 31D      -0.003700
      3 CBA         -5.7450     3.3490     1.6780 c3         1 31D      -0.082433
      4 CBB         -7.0840     2.9800    -0.4160 c3         1 31D      -0.082433
      5 CAV         -4.8990     1.6480     0.0030 ca         1 31D      -0.042300
      6 CAW         -3.5780     1.5130     0.4840 ca         1 31D      -0.123000
      7 CAX         -2.8680     0.3080     0.3560 ca         1 31D      -0.064000
      8 CAU         -5.4880     0.5190    -0.6140 ca         1 31D      -0.123000
      9 CAT         -4.7800    -0.6890    -0.7440 ca         1 31D      -0.064000
     10 CAR         -3.4590    -0.8160    -0.2650 ca         1 31D      -0.157600
     11 CAQ         -2.7290    -2.1390    -0.4250 c          1 31D       0.627700
     12 OAS         -3.2870    -3.1110    -0.9240 o          1 31D      -0.600100
     13 NAP         -1.4100    -2.1640     0.0100 ns         1 31D      -0.154000
     14 CAD         -0.4380    -3.2030     0.0810 ca         1 31D       0.036000
     15 CAC         -0.8320    -4.5610     0.0570 ca         1 31D      -0.150000
     16 CAB          0.1150    -5.5910     0.1180 ca         1 31D      -0.071000
     17 CAA          1.4740    -5.2800     0.2130 ca         1 31D      -0.154000
     18 CAF          1.8890    -3.9420     0.2560 ca         1 31D      -0.064000
     19 CAE          0.9490    -2.8780     0.1960 ca         1 31D      -0.203600
     20 CAG          1.4410    -1.4310     0.2560 c          1 31D       0.618700
     21 OAI          0.6810    -0.4990     0.4950 o          1 31D      -0.631100
     22 NAH          2.8090    -1.2560     0.0550 ns         1 31D      -0.117000
     23 CAJ          3.6490    -0.1050     0.0380 ca         1 31D      -0.082000
     24 CAK          5.0290    -0.3130    -0.1300 ca         1 31D      -0.162500
     25 CAL          5.9250     0.7700    -0.1600 ca         1 31D      -0.071000
     26 CAM          5.4570     2.0960    -0.0230 ca         1 31D      -0.138600
     27 CBC          6.4220     3.2700    -0.0550 c          1 31D       0.713600
     28 OBE          5.9730     4.4020     0.0670 o          1 31D      -0.719500
     29 OBD          7.6160     3.0440    -0.2010 o          1 31D      -0.719500
     30 CAN          4.0690     2.3030     0.1420 ca         1 31D      -0.071000
     31 CAO          3.1750     1.2170     0.1720 ca         1 31D      -0.162500
     32 H1          -3.8470     4.2480    -0.1370 hc         1 31D       0.035700
     33 H2          -4.7300     3.8710    -1.6270 hc         1 31D       0.035700
     34 H3          -5.3660     5.0790    -0.4940 hc         1 31D       0.035700
     35 H4          -6.2960     4.2860     1.8290 hc         1 31D       0.035700
     36 H5          -6.2710     2.5560     2.2230 hc         1 31D       0.035700
     37 H6          -4.7550     3.4720     2.1330 hc         1 31D       0.035700
     38 H7          -7.0720     2.7640    -1.4910 hc         1 31D       0.035700
     39 H8          -7.7040     2.2270     0.0860 hc         1 31D       0.035700
     40 H9          -7.5750     3.9520    -0.2810 hc         1 31D       0.035700
     41 H10         -3.0840     2.3510     0.9690 ha         1 31D       0.115000
     42 H11         -1.8570     0.2710     0.7540 ha         1 31D       0.129500
     43 H12         -6.5000     0.5500    -1.0060 ha         1 31D       0.115000
     44 H13         -5.2720    -1.5320    -1.2260 ha         1 31D       0.129500
     45 H14         -1.0610    -1.2690     0.3280 hn         1 31D       0.201000
     46 H15         -1.8800    -4.8410     0.0060 ha         1 31D       0.142000
     47 H16         -0.2070    -6.6300     0.0980 ha         1 31D       0.109000
     48 H17          2.2100    -6.0790     0.2650 ha         1 31D       0.113000
     49 H18          2.9550    -3.7550     0.3540 ha         1 31D       0.118000
     50 H19          3.3070    -2.1160    -0.1280 hn         1 31D       0.146000
     51 H20          5.4170    -1.3240    -0.2380 ha         1 31D       0.100000
     52 H21          6.9870     0.5720    -0.2900 ha         1 31D       0.129500
     53 H23          3.6740     3.3110     0.2480 ha         1 31D       0.129500
     54 H24          2.1190     1.4310     0.2960 ha         1 31D       0.100000
@<TRIPOS>BOND
     1     1     2 1   
     2     1    32 1   
     3     1    33 1   
     4     1    34 1   
     5     2     3 1   
     6     2     4 1   
     7     2     5 1   
     8     3    35 1   
     9     3    36 1   
    10     3    37 1   
    11     4    38 1   
    12     4    39 1   
    13     4    40 1   
    14     5     6 ar  
    15     5     8 ar  
    16     6     7 ar  
    17     6    41 1   
    18     7    10 ar  
    19     7    42 1   
    20     8     9 ar  
    21     8    43 1   
    22     9    10 ar  
    23     9    44 1   
    24    10    11 1   
    25    11    12 2   
    26    11    13 1   
    27    13    14 1   
    28    13    45 1   
    29    14    15 ar  
    30    14    19 ar  
    31    15    16 ar  
    32    15    46 1   
    33    16    17 ar  
    34    16    47 1   
    35    17    18 ar  
    36    17    48 1   
    37    18    19 ar  
    38    18    49 1   
    39    19    20 1   
    40    20    21 2   
    41    20    22 1   
    42    22    23 1   
    43    22    50 1   
    44    23    24 ar  
    45    23    31 ar  
    46    24    25 ar  
    47    24    51 1   
    48    25    26 ar  
    49    25    52 1   
    50    26    27 1   
    51    26    30 ar  
    52    27    28 1   
    53    27    29 1   
    54    30    31 ar  
    55    30    53 1   
    56    31    54 1   
@<TRIPOS>SUBSTRUCTURE
     1 31D         1 TEMP              0 ****  ****    0 ROOT
