@<TRIPOS>MOLECULE
31E
   16    16     1     0     0
SMALL
bcc


@<TRIPOS>ATOM
      1 CAI          2.0330    -0.4660    -0.7030 c2         1 31E       0.499100
      2 SAB          2.4200     1.0490     0.1300 sh         1 31E      -0.390000
      3 NAG          1.1330    -1.2890    -0.3960 n2         1 31E      -0.563900
      4 CAF          0.2780    -1.0470     0.7500 c3         1 31E       0.078500
      5 CAJ         -1.0320    -0.4850     0.3290 cc         1 31E       0.228000
      6 OAH         -1.0370     0.7500    -0.2180 os         1 31E      -0.321800
      7 CAD         -2.3130     1.0540    -0.5350 cc         1 31E       0.236600
      8 CAC         -3.1350     0.0340    -0.1970 cd         1 31E      -0.272300
      9 CAE         -2.2950    -0.9760     0.3660 cd         1 31E      -0.249300
     10 H1           2.6610    -0.6670    -1.5670 h5         1 31E       0.025800
     11 H2           3.5100     1.3160    -0.5940 hs         1 31E       0.214800
     12 H3           0.0820    -2.0020     1.2400 h1         1 31E       0.072700
     13 H4           0.7460    -0.3980     1.5040 h1         1 31E       0.072700
     14 H5          -2.4830     2.0170    -0.9880 h4         1 31E       0.052100
     15 H6          -4.2040    -0.0000    -0.3320 ha         1 31E       0.160000
     16 H7          -2.5930    -1.9390     0.7470 ha         1 31E       0.159000
@<TRIPOS>BOND
     1     1     2 1   
     2     1     3 2   
     3     1    10 1   
     4     2    11 1   
     5     3     4 1   
     6     4     5 1   
     7     4    12 1   
     8     4    13 1   
     9     5     6 1   
    10     5     9 2   
    11     6     7 1   
    12     7     8 2   
    13     7    14 1   
    14     8     9 1   
    15     8    15 1   
    16     9    16 1   
@<TRIPOS>SUBSTRUCTURE
     1 31E         1 TEMP              0 ****  ****    0 ROOT
