@<TRIPOS>MOLECULE
31E
   16    16     1     0     0
SMALL
No Charge or Current Charge


@<TRIPOS>ATOM
      1 CAI          2.1360    -0.6930    -0.6730 c2         1 31E       0.499100
      2 SAB          2.6970     0.9070    -0.1010 sh         1 31E      -0.390000
      3 NAG          1.1030    -1.2970    -0.1850 n2         1 31E      -0.563900
      4 CAF          0.2650    -0.7850     0.9210 c3         1 31E       0.078500
      5 CAJ         -1.0710    -0.3210     0.4000 cc         1 31E       0.118300
      6 OAH         -1.3180     1.0290     0.2760 os         1 31E      -0.233000
      7 CAD         -2.6000     1.1580    -0.2150 cc         1 31E       0.126900
      8 CAC         -3.1450    -0.0840    -0.3940 cd         1 31E      -0.189000
      9 CAE         -2.1720    -1.0270    -0.0020 cd         1 31E      -0.166000
     10 H1           2.7070    -1.1450    -1.4860 h5         1 31E       0.025800
     11 H2           3.7380     0.9880    -0.9620 hs         1 31E       0.214800
     12 H3           0.0920    -1.5770     1.6610 h1         1 31E       0.072700
     13 H4           0.7340     0.0460     1.4620 h1         1 31E       0.072700
     14 H5          -2.9840     2.1550    -0.3840 h4         1 31E       0.052100
     15 H6          -4.1420    -0.2950    -0.7680 ha         1 31E       0.142000
     16 H7          -2.2680    -2.1080    -0.0160 ha         1 31E       0.141000
@<TRIPOS>BOND
     1     1     2 1   
     2     1     3 2   
     3     1    10 1   
     4     2    11 1   
     5     3     4 1   
     6     4     5 1   
     7     4    12 1   
     8     4    13 1   
     9     5     6 1   
    10     5     9 2   
    11     6     7 1   
    12     7     8 2   
    13     7    14 1   
    14     8     9 1   
    15     8    15 1   
    16     9    16 1   
@<TRIPOS>SUBSTRUCTURE
     1 31E         1 TEMP              0 ****  ****    0 ROOT
