@<TRIPOS>MOLECULE
31F
   32    34     1     0     0
SMALL
No Charge or Current Charge


@<TRIPOS>ATOM
      1 OAB         -5.3500     1.0930    -0.7730 o          1 31F      -0.540000
      2 OAD         -5.3920    -1.3550    -0.0280 o          1 31F      -0.540000
      3 CAE         -3.0390    -0.0460     0.0080 ca         1 31F      -0.250500
      4 CAF         -2.3100     1.1030    -0.3530 ca         1 31F      -0.016000
      5 CAG         -0.9050     1.0690    -0.3770 ca         1 31F      -0.098000
      6 CAJ         -2.3500    -1.2230     0.3590 ca         1 31F      -0.016000
      7 CAI         -0.9440    -1.2540     0.3340 ca         1 31F      -0.098000
      8 CAH         -0.1980    -0.1140    -0.0570 ca         1 31F      -0.093900
      9 CAK          1.2780    -0.1230    -0.0500 cc         1 31F       0.546500
     10 CAT          3.3550     0.8780     0.1310 ca         1 31F       0.184400
     11 CAS          4.1220     2.0360     0.3540 ca         1 31F      -0.101000
     12 CAR          5.5270     1.9860     0.3470 ca         1 31F      -0.075000
     13 CAQ          6.1810     0.7670     0.1150 ca         1 31F      -0.129000
     14 CAP          5.4310    -0.3970    -0.1110 ca         1 31F      -0.041000
     15 CAO          4.0200    -0.3410    -0.1030 ca         1 31F      -0.200600
     16 CAM          3.2040    -1.5530    -0.3440 c          1 31F       0.578600
     17 N10         -5.1680     0.4640     1.5690 n8         1 31F      -1.006100
     18 N1           1.8720    -1.3340    -0.3000 ns         1 31F      -0.427400
     19 OAN          3.6690    -2.6590    -0.5710 o          1 31F      -0.531000
     20 N            1.9560     1.0100     0.1560 nd         1 31F      -0.621100
     21 S           -4.8360    -0.0060     0.0420 sy         1 31F       1.126600
     22 HAJ         -2.8970    -2.1150     0.6610 ha         1 31F       0.142500
     23 HAF         -2.8260     2.0260    -0.6140 ha         1 31F       0.142500
     24 HAI         -0.4450    -2.1720     0.6370 ha         1 31F       0.133500
     25 HAG         -0.3670     1.9710    -0.6590 ha         1 31F       0.133500
     26 H1           1.2890    -2.1330    -0.4880 hn         1 31F       0.333500
     27 HAS          3.6220     2.9840     0.5360 ha         1 31F       0.133000
     28 HAR          6.1050     2.8910     0.5220 ha         1 31F       0.119000
     29 HAQ          7.2680     0.7240     0.1080 ha         1 31F       0.121000
     30 HAP          5.9450    -1.3400    -0.2930 ha         1 31F       0.137000
     31 H101        -5.7910     1.2480     1.3870 hn         1 31F       0.476500
     32 H102        -5.8210    -0.2650     1.8470 hn         1 31F       0.476500
@<TRIPOS>BOND
     1     1    21 2   
     2     2    21 2   
     3     3     4 ar  
     4     3     6 ar  
     5     3    21 1   
     6     4     5 ar  
     7     4    23 1   
     8     5     8 ar  
     9     5    25 1   
    10     6     7 ar  
    11     6    22 1   
    12     7     8 ar  
    13     7    24 1   
    14     8     9 1   
    15     9    18 1   
    16     9    20 2   
    17    10    11 ar  
    18    10    15 ar  
    19    10    20 1   
    20    11    12 ar  
    21    11    27 1   
    22    12    13 ar  
    23    12    28 1   
    24    13    14 ar  
    25    13    29 1   
    26    14    15 ar  
    27    14    30 1   
    28    15    16 1   
    29    16    18 1   
    30    16    19 2   
    31    17    21 1   
    32    17    31 1   
    33    17    32 1   
    34    18    26 1   
@<TRIPOS>SUBSTRUCTURE
     1 31F         1 TEMP              0 ****  ****    0 ROOT
