@<TRIPOS>MOLECULE
31F
   32    34     1     0     0
SMALL
abcg2


@<TRIPOS>ATOM
      1 OAB         -5.1980     0.9210    -1.0540 o          1 31F      -0.540000
      2 OAD         -5.2640    -1.3580    -0.0170 o          1 31F      -0.540000
      3 CAE         -2.9930    -0.0670     0.0010 ca         1 31F      -0.250500
      4 CAF         -2.2710     1.0720    -0.3330 ca         1 31F      -0.016000
      5 CAG         -0.8910     1.0160    -0.3420 ca         1 31F      -0.098000
      6 CAJ         -2.3570    -1.2530     0.3260 ca         1 31F      -0.016000
      7 CAI         -0.9710    -1.3020     0.3090 ca         1 31F      -0.098000
      8 CAH         -0.2310    -0.1730    -0.0290 ca         1 31F      -0.093900
      9 CAK          1.2450    -0.1940    -0.0550 cc         1 31F       0.546500
     10 CAT          3.2670     0.8360     0.1640 ca         1 31F       0.184400
     11 CAS          3.9880     2.0090     0.4270 ca         1 31F      -0.101000
     12 CAR          5.3650     1.9900     0.4130 ca         1 31F      -0.075000
     13 CAQ          6.0620     0.8080     0.1360 ca         1 31F      -0.129000
     14 CAP          5.3670    -0.3530    -0.1250 ca         1 31F      -0.041000
     15 CAO          3.9700    -0.3470    -0.1110 ca         1 31F      -0.200600
     16 CAM          3.2180    -1.5630    -0.3950 c          1 31F       0.578600
     17 N10         -5.0530     0.7890     1.4190 n8         1 31F      -1.006100
     18 N1           1.8520    -1.3800    -0.3470 ns         1 31F      -0.427400
     19 OAN          3.6970    -2.6480    -0.6640 o          1 31F      -0.531000
     20 N            1.8940     0.8870     0.1910 nd         1 31F      -0.621100
     21 S           -4.7640     0.0100    -0.0060 sy         1 31F       1.126600
     22 HAJ         -2.9190    -2.1370     0.5940 ha         1 31F       0.142500
     23 HAF         -2.7710     1.9940    -0.5940 ha         1 31F       0.142500
     24 HAI         -0.4870    -2.2280     0.5900 ha         1 31F       0.133500
     25 HAG         -0.3200     1.8950    -0.6070 ha         1 31F       0.133500
     26 H1           1.2850    -2.1810    -0.5930 hn         1 31F       0.333500
     27 HAS          3.4440     2.9190     0.6440 ha         1 31F       0.133000
     28 HAR          5.9150     2.8990     0.6200 ha         1 31F       0.119000
     29 HAQ          7.1430     0.8080     0.1260 ha         1 31F       0.121000
     30 HAP          5.8970    -1.2710    -0.3430 ha         1 31F       0.137000
     31 H101        -5.9640     1.2380     1.4200 hn         1 31F       0.476500
     32 H102        -4.9530     0.1850     2.2280 hn         1 31F       0.476500
@<TRIPOS>BOND
     1     1    21 2   
     2     2    21 2   
     3     3     4 ar  
     4     3     6 ar  
     5     3    21 1   
     6     4     5 ar  
     7     4    23 1   
     8     5     8 ar  
     9     5    25 1   
    10     6     7 ar  
    11     6    22 1   
    12     7     8 ar  
    13     7    24 1   
    14     8     9 1   
    15     9    18 1   
    16     9    20 2   
    17    10    11 ar  
    18    10    15 ar  
    19    10    20 1   
    20    11    12 ar  
    21    11    27 1   
    22    12    13 ar  
    23    12    28 1   
    24    13    14 ar  
    25    13    29 1   
    26    14    15 ar  
    27    14    30 1   
    28    15    16 1   
    29    16    18 1   
    30    16    19 2   
    31    17    21 1   
    32    17    31 1   
    33    17    32 1   
    34    18    26 1   
@<TRIPOS>SUBSTRUCTURE
     1 31F         1 TEMP              0 ****  ****    0 ROOT
