@<TRIPOS>MOLECULE
31G
   37    39     1     0     0
SMALL
No Charge or Current Charge


@<TRIPOS>ATOM
      1 C1           3.0530    -0.8240     2.5230 ca         1 31G      -0.157000
      2 C2           1.8800    -1.4030     2.0140 ca         1 31G      -0.080000
      3 C3           1.5790    -1.3010     0.6430 ca         1 31G      -0.157300
      4 C4           2.4630    -0.6140    -0.2140 ca         1 31G       0.004000
      5 C5           3.6480    -0.0380     0.2890 ca         1 31G      -0.227500
      6 C6           3.9350    -0.1420     1.6670 ca         1 31G      -0.007000
      7 S1           4.7980     0.8690    -0.8420 s6         1 31G       1.259100
      8 O1           6.1000     0.6750    -0.1850 o          1 31G      -0.690200
      9 O2           4.6000     0.1650    -2.1180 o          1 31G      -0.690200
     10 C7           0.3050    -1.9220     0.0900 c3         1 31G       0.223900
     11 O3          -0.7480    -0.9520     0.2020 os         1 31G      -0.368100
     12 C8          -2.0450    -1.1980    -0.2130 ca         1 31G       0.224100
     13 C9          -2.3890    -2.4340    -0.8020 ca         1 31G      -0.266000
     14 C10         -3.6970    -2.6760    -1.2410 ca         1 31G      -0.032000
     15 C11         -4.6740    -1.6830    -1.1010 ca         1 31G      -0.176000
     16 C12         -4.3620    -0.4450    -0.5180 ca         1 31G       0.132000
     17 C13         -3.0420    -0.1960    -0.0620 ca         1 31G      -0.251000
     18 C14         -2.8170     1.0740     0.5210 ca         1 31G       0.462900
     19 N1          -3.7700     2.0020     0.6290 nb         1 31G      -0.374000
     20 C15         -4.9640     1.6550     0.1580 ca         1 31G       0.425900
     21 N2          -5.3200     0.4960    -0.4010 nb         1 31G      -0.317000
     22 N3          -5.9320     2.5870     0.2690 nv         1 31G      -1.060900
     23 N4          -1.6340     1.4800     1.0350 nv         1 31G      -1.056900
     24 H1           3.2810    -0.9020     3.5830 ha         1 31G       0.096000
     25 H2           1.2030    -1.9270     2.6860 ha         1 31G       0.092000
     26 H3           2.2230    -0.5270    -1.2720 ha         1 31G       0.133000
     27 H4           4.8380     0.3060     2.0770 ha         1 31G       0.131000
     28 H6           0.4610    -2.2080    -0.9580 h1         1 31G       0.040200
     29 H5           0.0600    -2.8280     0.6620 h1         1 31G       0.040200
     30 H7          -1.6560    -3.2230    -0.9330 ha         1 31G       0.118000
     31 H8          -3.9540    -3.6310    -1.6950 ha         1 31G       0.102000
     32 H9          -5.6850    -1.8760    -1.4490 ha         1 31G       0.123000
     33 H11         -5.7650     3.3720     0.8920 hn         1 31G       0.480500
     34 H10         -6.8980     2.2930     0.1480 hn         1 31G       0.480500
     35 H12         -0.8340     0.8820     0.8370 hn         1 31G       0.516500
     36 H13         -1.4620     2.4760     1.1240 hn         1 31G       0.516500
     37 O4           4.2480     2.2320    -0.7740 o          1 31G      -0.690200
@<TRIPOS>BOND
     1     1     2 ar  
     2     1     6 ar  
     3     1    24 1   
     4     2     3 ar  
     5     2    25 1   
     6     3     4 ar  
     7     3    10 1   
     8     4     5 ar  
     9     4    26 1   
    10     5     6 ar  
    11     5     7 1   
    12     6    27 1   
    13     7     8 1   
    14     7     9 1   
    15     7    37 1   
    16    10    11 1   
    17    10    28 1   
    18    10    29 1   
    19    11    12 1   
    20    12    13 ar  
    21    12    17 ar  
    22    13    14 ar  
    23    13    30 1   
    24    14    15 ar  
    25    14    31 1   
    26    15    16 ar  
    27    15    32 1   
    28    16    17 ar  
    29    16    21 ar  
    30    17    18 ar  
    31    18    19 ar  
    32    18    23 1   
    33    19    20 ar  
    34    20    21 ar  
    35    20    22 1   
    36    22    33 1   
    37    22    34 1   
    38    23    35 1   
    39    23    36 1   
@<TRIPOS>SUBSTRUCTURE
     1 31G         1 TEMP              0 ****  ****    0 ROOT
