@<TRIPOS>MOLECULE
31G
   37    39     1     0     0
SMALL
bcc


@<TRIPOS>ATOM
      1 C1           2.9700    -0.8190     2.5010 ca         1 31G      -0.175000
      2 C2           1.8250    -1.4160     1.9930 ca         1 31G      -0.098000
      3 C3           1.5370    -1.3400     0.6340 ca         1 31G      -0.157300
      4 C4           2.4040    -0.6550    -0.2090 ca         1 31G      -0.014000
      5 C5           3.5480    -0.0570     0.2990 ca         1 31G      -0.227500
      6 C6           3.8330    -0.1370     1.6560 ca         1 31G      -0.025000
      7 S1           4.6130     0.8880    -0.7890 s6         1 31G       1.259100
      8 O1           5.9600     0.8000    -0.2010 o          1 31G      -0.690200
      9 O2           4.5030     0.2420    -2.1070 o          1 31G      -0.690200
     10 C7           0.2850    -1.9510     0.0860 c3         1 31G       0.200700
     11 O3          -0.7260    -0.9480     0.1560 os         1 31G      -0.344900
     12 C8          -1.9750    -1.2300    -0.2540 ca         1 31G       0.224100
     13 C9          -2.3290    -2.4430    -0.8060 ca         1 31G      -0.284000
     14 C10         -3.6550    -2.6560    -1.2090 ca         1 31G      -0.050000
     15 C11         -4.6130    -1.6900    -1.0660 ca         1 31G      -0.259300
     16 C12         -4.2780    -0.4390    -0.5040 ca         1 31G       0.525600
     17 C13         -2.9420    -0.2020    -0.0940 ca         1 31G      -0.381600
     18 C14         -2.7040     1.1070     0.4710 ca         1 31G       0.791200
     19 N1          -3.6820     1.9870     0.5810 nb         1 31G      -0.900000
     20 C15         -4.9060     1.6380     0.1530 ca         1 31G       0.951900
     21 N2          -5.2550     0.4850    -0.3770 nb         1 31G      -0.843000
     22 N3          -5.8540     2.5980     0.2570 nv         1 31G      -0.950500
     23 N4          -1.5070     1.5000     0.9110 nv         1 31G      -0.946500
     24 H1           3.1940    -0.8900     3.5570 ha         1 31G       0.114000
     25 H2           1.1570    -1.9540     2.6560 ha         1 31G       0.110000
     26 H3           2.1880    -0.6050    -1.2700 ha         1 31G       0.151000
     27 H4           4.7300     0.3180     2.0550 ha         1 31G       0.149000
     28 H6           0.4290    -2.2690    -0.9510 h1         1 31G       0.040200
     29 H5          -0.0150    -2.8250     0.6720 h1         1 31G       0.040200
     30 H7          -1.6080    -3.2370    -0.9380 ha         1 31G       0.136000
     31 H8          -3.9180    -3.6130    -1.6410 ha         1 31G       0.120000
     32 H9          -5.6350    -1.8610    -1.3760 ha         1 31G       0.141000
     33 H11         -5.6700     3.3780     0.8640 hn         1 31G       0.425300
     34 H10         -6.8160     2.3200     0.1680 hn         1 31G       0.425300
     35 H12         -0.6980     0.9100     0.8600 hn         1 31G       0.461300
     36 H13         -1.4170     2.4250     1.2950 hn         1 31G       0.461300
     37 O4           4.0560     2.2520    -0.7610 o          1 31G      -0.690200
@<TRIPOS>BOND
     1     1     2 ar  
     2     1     6 ar  
     3     1    24 1   
     4     2     3 ar  
     5     2    25 1   
     6     3     4 ar  
     7     3    10 1   
     8     4     5 ar  
     9     4    26 1   
    10     5     6 ar  
    11     5     7 1   
    12     6    27 1   
    13     7     8 1   
    14     7     9 1   
    15     7    37 1   
    16    10    11 1   
    17    10    28 1   
    18    10    29 1   
    19    11    12 1   
    20    12    13 ar  
    21    12    17 ar  
    22    13    14 ar  
    23    13    30 1   
    24    14    15 ar  
    25    14    31 1   
    26    15    16 ar  
    27    15    32 1   
    28    16    17 ar  
    29    16    21 ar  
    30    17    18 ar  
    31    18    19 ar  
    32    18    23 1   
    33    19    20 ar  
    34    20    21 ar  
    35    20    22 1   
    36    22    33 1   
    37    22    34 1   
    38    23    35 1   
    39    23    36 1   
@<TRIPOS>SUBSTRUCTURE
     1 31G         1 TEMP              0 ****  ****    0 ROOT
