@<TRIPOS>MOLECULE
31I
   66    69     1     0     0
SMALL
No Charge or Current Charge


@<TRIPOS>ATOM
      1 O30          2.8040    -2.4330     0.8340 o          1 31I      -0.592100
      2 C16          2.5980    -1.4670     0.1070 c          1 31I       0.629300
      3 N17          3.6780    -0.6980    -0.4230 n          1 31I      -0.182800
      4 N18          3.4620     0.4610    -1.1680 n2         1 31I      -0.437300
      5 C19          4.0880     1.5620    -0.8750 ce         1 31I       0.396800
      6 C25          5.3580     1.5200    -0.0930 ca         1 31I      -0.165900
      7 C26          6.0460     2.7010     0.2440 ca         1 31I      -0.080000
      8 C27          7.2430     2.6320     0.9780 ca         1 31I      -0.111000
      9 C28          7.7540     1.3850     1.3770 ca         1 31I      -0.095000
     10 C29          7.0700     0.2040     1.0400 ca         1 31I      -0.099000
     11 C24          5.8720     0.2680     0.3020 ca         1 31I      -0.074300
     12 C20          5.1050    -1.0090    -0.0820 c6         1 31I       0.145000
     13 C11          5.8610    -1.8210    -1.1920 c3         1 31I      -0.066700
     14 C08          5.2230    -3.2050    -1.4600 c3         1 31I      -0.089100
     15 C01          6.0690    -1.0530    -2.5220 c3         1 31I      -0.089100
     16 C15          1.1940    -1.0750    -0.2440 ce         1 31I      -0.271200
     17 C14          0.0730    -1.7250     0.1990 cf         1 31I      -0.091200
     18 C13         -1.3600    -1.4350    -0.0710 ca         1 31I      -0.052800
     19 C10         -2.3770    -2.3380     0.3470 ca         1 31I       0.086100
     20 O11         -1.9500    -3.4910     1.0070 os         1 31I      -0.347100
     21 C12         -2.8080    -4.5320     1.5060 c3         1 31I       0.149900
     22 C07         -3.7490    -2.0310     0.0720 ca         1 31I       0.122100
     23 O08         -4.7630    -2.8910     0.4660 os         1 31I      -0.326100
     24 C09         -6.1580    -2.6300     0.2270 c3         1 31I       0.143900
     25 C06         -4.0670    -0.8350    -0.6100 ca         1 31I      -0.176000
     26 C05         -3.0620     0.0560    -1.0140 ca         1 31I      -0.061300
     27 C04         -3.4330     1.3480    -1.7370 c3         1 31I       0.041200
     28 C03         -4.4320     2.1920    -0.9450 ca         1 31I      -0.316300
     29 C32         -5.7390     2.3960    -1.4280 ca         1 31I       0.171900
     30 N33         -6.6350     3.1390    -0.7500 nb         1 31I      -0.279000
     31 C34         -6.2070     3.6670     0.4030 ca         1 31I       0.405900
     32 N35         -7.1000     4.4170     1.0860 nv         1 31I      -1.054900
     33 N36         -4.9980     3.5460     0.9610 nb         1 31I      -0.332000
     34 C02         -4.1200     2.8060     0.2790 ca         1 31I       0.425900
     35 N01         -2.9060     2.6820     0.8630 nv         1 31I      -1.065900
     36 C31         -1.7200    -0.2490    -0.7460 ca         1 31I      -0.135000
     37 H1           3.7570     2.5300    -1.2580 h4         1 31I       0.036800
     38 H2           5.6560     3.6700    -0.0610 ha         1 31I       0.117000
     39 H3           7.7740     3.5450     1.2390 ha         1 31I       0.117000
     40 H4           8.6790     1.3330     1.9460 ha         1 31I       0.117000
     41 H5           7.4710    -0.7580     1.3520 ha         1 31I       0.120000
     42 H6           5.1090    -1.6410     0.8180 h1         1 31I       0.094700
     43 H7           6.8660    -2.0280    -0.8050 hc         1 31I       0.049700
     44 H8           4.2250    -3.0990    -1.9010 hc         1 31I       0.038367
     45 H9           5.8410    -3.7900    -2.1520 hc         1 31I       0.038367
     46 H10          5.1290    -3.7750    -0.5280 hc         1 31I       0.038367
     47 H11          6.5730    -0.0950    -2.3500 hc         1 31I       0.038367
     48 H12          6.6930    -1.6370    -3.2100 hc         1 31I       0.038367
     49 H13          5.1120    -0.8570    -3.0190 hc         1 31I       0.038367
     50 H14          1.0890    -0.2210    -0.9040 ha         1 31I       0.205000
     51 H15          0.2460    -2.5820     0.8530 ha         1 31I       0.211000
     52 H16         -3.5020    -4.1410     2.2620 h1         1 31I       0.038033
     53 H17         -3.3810    -4.9930     0.6920 h1         1 31I       0.038033
     54 H18         -2.2090    -5.3190     1.9800 h1         1 31I       0.038033
     55 H19         -6.4710    -1.6990     0.7160 h1         1 31I       0.043700
     56 H20         -6.3630    -2.5530    -0.8480 h1         1 31I       0.043700
     57 H21         -6.7700    -3.4470     0.6300 h1         1 31I       0.043700
     58 H22         -5.0960    -0.5730    -0.8340 ha         1 31I       0.128000
     59 H23         -2.5370     1.9460    -1.9470 hc         1 31I       0.054700
     60 H24         -3.8470     1.0980    -2.7220 hc         1 31I       0.054700
     61 H25         -6.0750     1.9600    -2.3680 h4         1 31I       0.013100
     62 H26         -7.9400     4.7240     0.6020 hn         1 31I       0.488000
     63 H27         -6.7590     5.0130     1.8360 hn         1 31I       0.488000
     64 H28         -2.3380     1.8920     0.5730 hn         1 31I       0.492500
     65 H29         -2.8240     2.9560     1.8370 hn         1 31I       0.492500
     66 H30         -0.9560     0.4520    -1.0660 ha         1 31I       0.120000
@<TRIPOS>BOND
     1     1     2 2   
     2     2     3 1   
     3     2    16 1   
     4     3     4 1   
     5     3    12 1   
     6     4     5 2   
     7     5     6 1   
     8     5    37 1   
     9     6     7 ar  
    10     6    11 ar  
    11     7     8 ar  
    12     7    38 1   
    13     8     9 ar  
    14     8    39 1   
    15     9    10 ar  
    16     9    40 1   
    17    10    11 ar  
    18    10    41 1   
    19    11    12 1   
    20    12    13 1   
    21    12    42 1   
    22    13    14 1   
    23    13    15 1   
    24    13    43 1   
    25    14    44 1   
    26    14    45 1   
    27    14    46 1   
    28    15    47 1   
    29    15    48 1   
    30    15    49 1   
    31    16    17 2   
    32    16    50 1   
    33    17    18 1   
    34    17    51 1   
    35    18    19 ar  
    36    18    36 ar  
    37    19    20 1   
    38    19    22 ar  
    39    20    21 1   
    40    21    52 1   
    41    21    53 1   
    42    21    54 1   
    43    22    23 1   
    44    22    25 ar  
    45    23    24 1   
    46    24    55 1   
    47    24    56 1   
    48    24    57 1   
    49    25    26 ar  
    50    25    58 1   
    51    26    27 1   
    52    26    36 ar  
    53    27    28 1   
    54    27    59 1   
    55    27    60 1   
    56    28    29 ar  
    57    28    34 ar  
    58    29    30 ar  
    59    29    61 1   
    60    30    31 ar  
    61    31    32 1   
    62    31    33 ar  
    63    32    62 1   
    64    32    63 1   
    65    33    34 ar  
    66    34    35 1   
    67    35    64 1   
    68    35    65 1   
    69    36    66 1   
@<TRIPOS>SUBSTRUCTURE
     1 31I         1 TEMP              0 ****  ****    0 ROOT
