@<TRIPOS>MOLECULE
31I
   66    69     1     0     0
SMALL
abcg2


@<TRIPOS>ATOM
      1 O30          2.7330    -2.2730     1.1110 o          1 31I      -0.592100
      2 C16          2.5350    -1.3410     0.3470 c          1 31I       0.629300
      3 N17          3.5890    -0.6320    -0.1780 n          1 31I      -0.182800
      4 N18          3.3010     0.4720    -0.9180 n2         1 31I      -0.437300
      5 C19          4.1950     1.3740    -1.0250 ce         1 31I       0.396800
      6 C25          5.4760     1.3400    -0.3460 ca         1 31I      -0.165900
      7 C26          6.2950     2.4630    -0.2540 ca         1 31I      -0.080000
      8 C27          7.4710     2.3990     0.4760 ca         1 31I      -0.111000
      9 C28          7.8220     1.2160     1.1180 ca         1 31I      -0.095000
     10 C29          7.0060     0.0960     1.0250 ca         1 31I      -0.099000
     11 C24          5.8350     0.1510     0.2850 ca         1 31I      -0.074300
     12 C20          4.9710    -1.0590     0.0700 c6         1 31I       0.145000
     13 C11          5.5380    -1.9650    -1.0480 c3         1 31I      -0.066700
     14 C08          4.7810    -3.2830    -1.1690 c3         1 31I      -0.089100
     15 C01          5.6450    -1.2900    -2.4110 c3         1 31I      -0.089100
     16 C15          1.1760    -0.9220    -0.0550 ce         1 31I      -0.271200
     17 C14          0.1140    -1.5180     0.4960 cf         1 31I      -0.091200
     18 C13         -1.2810    -1.2130     0.1880 ca         1 31I      -0.052800
     19 C10         -2.2750    -2.1010     0.5950 ca         1 31I       0.086100
     20 O11         -1.9610    -3.2260     1.2860 os         1 31I      -0.347100
     21 C12         -1.7760    -4.3870     0.4830 c3         1 31I       0.149900
     22 C07         -3.6270    -1.8320     0.3120 ca         1 31I       0.122100
     23 O08         -4.5050    -2.7530     0.7390 os         1 31I      -0.326100
     24 C09         -5.8810    -2.5290     0.5040 c3         1 31I       0.143900
     25 C06         -3.9670    -0.6670    -0.3570 ca         1 31I      -0.176000
     26 C05         -2.9790     0.2360    -0.7580 ca         1 31I      -0.061300
     27 C04         -3.3720     1.5020    -1.4870 c3         1 31I       0.041200
     28 C03         -4.5110     2.2410    -0.8520 ca         1 31I      -0.316300
     29 C32         -5.7230     2.4130    -1.4780 ca         1 31I       0.171900
     30 N33         -6.7640     3.0630    -0.9630 nb         1 31I      -0.279000
     31 C34         -6.5710     3.5670     0.2560 ca         1 31I       0.405900
     32 N35         -7.6190     4.1950     0.8400 nv         1 31I      -1.054900
     33 N36         -5.4510     3.4780     0.9730 nb         1 31I      -0.332000
     34 C02         -4.4250     2.8260     0.4350 ca         1 31I       0.425900
     35 N01         -3.2870     2.7790     1.1530 nv         1 31I      -1.065900
     36 C31         -1.6550    -0.0380    -0.4820 ca         1 31I      -0.135000
     37 H1           3.9240     2.2390    -1.6190 h4         1 31I       0.036800
     38 H2           6.0050     3.3840    -0.7460 ha         1 31I       0.117000
     39 H3           8.1110     3.2670     0.5510 ha         1 31I       0.117000
     40 H4           8.7380     1.1660     1.6930 ha         1 31I       0.117000
     41 H5           7.2880    -0.8240     1.5240 ha         1 31I       0.120000
     42 H6           4.9540    -1.6490     0.9870 h1         1 31I       0.094700
     43 H7           6.5550    -2.1970    -0.7110 hc         1 31I       0.049700
     44 H8           3.7720    -3.1360    -1.5610 hc         1 31I       0.038367
     45 H9           5.3010    -3.9440    -1.8630 hc         1 31I       0.038367
     46 H10          4.7010    -3.7980    -0.2120 hc         1 31I       0.038367
     47 H11          6.2350    -0.3730    -2.3810 hc         1 31I       0.038367
     48 H12          6.1350    -1.9640    -3.1150 hc         1 31I       0.038367
     49 H13          4.6630    -1.0500    -2.8230 hc         1 31I       0.038367
     50 H14          1.0720    -0.1510    -0.8030 ha         1 31I       0.205000
     51 H15          0.2840    -2.2960     1.2310 ha         1 31I       0.211000
     52 H16         -2.6880    -4.6580    -0.0540 h1         1 31I       0.038033
     53 H17         -0.9690    -4.2470    -0.2400 h1         1 31I       0.038033
     54 H18         -1.5100    -5.2010     1.1550 h1         1 31I       0.038033
     55 H19         -6.2360    -1.6220     1.0000 h1         1 31I       0.043700
     56 H20         -6.1070    -2.4590    -0.5630 h1         1 31I       0.043700
     57 H21         -6.4080    -3.3850     0.9180 h1         1 31I       0.043700
     58 H22         -5.0020    -0.4350    -0.5710 ha         1 31I       0.128000
     59 H23         -2.4920     2.1480    -1.5720 hc         1 31I       0.054700
     60 H24         -3.6560     1.2460    -2.5120 hc         1 31I       0.054700
     61 H25         -5.8670     1.9980    -2.4720 h4         1 31I       0.013100
     62 H26         -8.3820     4.4820     0.2510 hn         1 31I       0.488000
     63 H27         -7.4380     4.7700     1.6440 hn         1 31I       0.488000
     64 H28         -2.5590     2.1260     0.9200 hn         1 31I       0.492500
     65 H29         -3.3180     3.0830     2.1110 hn         1 31I       0.492500
     66 H30         -0.8950     0.6760    -0.7760 ha         1 31I       0.120000
@<TRIPOS>BOND
     1     1     2 2   
     2     2     3 1   
     3     2    16 1   
     4     3     4 1   
     5     3    12 1   
     6     4     5 2   
     7     5     6 1   
     8     5    37 1   
     9     6     7 ar  
    10     6    11 ar  
    11     7     8 ar  
    12     7    38 1   
    13     8     9 ar  
    14     8    39 1   
    15     9    10 ar  
    16     9    40 1   
    17    10    11 ar  
    18    10    41 1   
    19    11    12 1   
    20    12    13 1   
    21    12    42 1   
    22    13    14 1   
    23    13    15 1   
    24    13    43 1   
    25    14    44 1   
    26    14    45 1   
    27    14    46 1   
    28    15    47 1   
    29    15    48 1   
    30    15    49 1   
    31    16    17 2   
    32    16    50 1   
    33    17    18 1   
    34    17    51 1   
    35    18    19 ar  
    36    18    36 ar  
    37    19    20 1   
    38    19    22 ar  
    39    20    21 1   
    40    21    52 1   
    41    21    53 1   
    42    21    54 1   
    43    22    23 1   
    44    22    25 ar  
    45    23    24 1   
    46    24    55 1   
    47    24    56 1   
    48    24    57 1   
    49    25    26 ar  
    50    25    58 1   
    51    26    27 1   
    52    26    36 ar  
    53    27    28 1   
    54    27    59 1   
    55    27    60 1   
    56    28    29 ar  
    57    28    34 ar  
    58    29    30 ar  
    59    29    61 1   
    60    30    31 ar  
    61    31    32 1   
    62    31    33 ar  
    63    32    62 1   
    64    32    63 1   
    65    33    34 ar  
    66    34    35 1   
    67    35    64 1   
    68    35    65 1   
    69    36    66 1   
@<TRIPOS>SUBSTRUCTURE
     1 31I         1 TEMP              0 ****  ****    0 ROOT
