@<TRIPOS>MOLECULE
31J
   45    46     1     0     0
SMALL
No Charge or Current Charge


@<TRIPOS>ATOM
      1 C21         -2.1020    -1.0060    -0.0160 ca         1 31J       0.178100
      2 C23          0.2130    -1.6590     0.2830 c          1 31J       0.670300
      3 C01          8.4220    -0.1790     0.4390 c3         1 31J       0.145900
      4 O02          7.1030    -0.2870    -0.1200 os         1 31J      -0.439000
      5 C03          6.5740     0.9480    -0.6440 c3         1 31J       0.159600
      6 C04          5.1540     0.6940    -1.2050 c3         1 31J       0.163600
      7 O05          4.2450     0.4780    -0.1070 os         1 31J      -0.447000
      8 C06          2.8870     0.2250    -0.5010 c3         1 31J       0.163600
      9 C07          2.0540     0.0180     0.7790 c3         1 31J      -0.026200
     10 C08          0.5750    -0.2250     0.4890 cc         1 31J      -0.225400
     11 C09         -0.3990     0.7630     0.4040 cd         1 31J       0.043600
     12 C10         -0.0500     2.2380     0.5210 c3         1 31J      -0.066900
     13 C11         -1.8010     0.3560     0.1710 ca         1 31J      -0.154800
     14 C12         -2.8570     1.2970     0.1440 ca         1 31J      -0.112000
     15 C13         -4.1860     0.8770    -0.0760 ca         1 31J       0.027100
     16 O14         -5.2520     1.7640    -0.1050 os         1 31J      -0.367100
     17 C15         -5.0840     3.1830     0.0810 c3         1 31J       0.157900
     18 C16         -4.4630    -0.4890    -0.2710 ca         1 31J       0.163100
     19 O17         -5.7620    -0.8640    -0.4720 oh         1 31J      -0.521100
     20 C18         -3.4250    -1.4430    -0.2480 ca         1 31J      -0.108300
     21 C19         -3.7240    -2.9330    -0.4510 c3         1 31J      -0.029800
     22 O22         -1.1000    -1.9360     0.0350 os         1 31J      -0.328200
     23 O24          1.0300    -2.5700     0.3180 o          1 31J      -0.488000
     24 H1           8.4350     0.5340     1.2750 h1         1 31J       0.027033
     25 H2           8.7580    -1.1530     0.8170 h1         1 31J       0.027033
     26 H3           9.1410     0.1600    -0.3180 h1         1 31J       0.027033
     27 H4           6.5270     1.7200     0.1360 h1         1 31J       0.027200
     28 H5           7.2130     1.3210    -1.4550 h1         1 31J       0.027200
     29 H6           4.8420     1.5710    -1.7890 h1         1 31J       0.028700
     30 H7           5.1740    -0.1740    -1.8770 h1         1 31J       0.028700
     31 H8           2.4840     1.0740    -1.0690 h1         1 31J       0.023200
     32 H9           2.8260    -0.6730    -1.1290 h1         1 31J       0.023200
     33 H10          2.4860    -0.8170     1.3430 hc         1 31J       0.070700
     34 H11          2.1840     0.8840     1.4380 hc         1 31J       0.070700
     35 H12          1.0180     2.4440     0.4050 hc         1 31J       0.053367
     36 H13         -0.5430     2.8240    -0.2620 hc         1 31J       0.053367
     37 H14         -0.3620     2.6380     1.4930 hc         1 31J       0.053367
     38 H15         -2.6500     2.3490     0.3070 ha         1 31J       0.123000
     39 H16         -6.0540     3.6920     0.0170 h1         1 31J       0.043367
     40 H17         -4.6520     3.3990     1.0670 h1         1 31J       0.043367
     41 H18         -4.4280     3.6030    -0.6920 h1         1 31J       0.043367
     42 H19         -6.2910    -0.0360    -0.4400 ho         1 31J       0.487000
     43 H20         -3.9090    -3.4270     0.5110 hc         1 31J       0.053033
     44 H21         -4.6050    -3.0960    -1.0830 hc         1 31J       0.053033
     45 H22         -2.8930    -3.4560    -0.9390 hc         1 31J       0.053033
@<TRIPOS>BOND
     1     1    13 ar  
     2     1    20 ar  
     3     1    22 1   
     4     2    10 1   
     5     2    22 1   
     6     2    23 2   
     7     3     4 1   
     8     3    24 1   
     9     3    25 1   
    10     3    26 1   
    11     4     5 1   
    12     5     6 1   
    13     5    27 1   
    14     5    28 1   
    15     6     7 1   
    16     6    29 1   
    17     6    30 1   
    18     7     8 1   
    19     8     9 1   
    20     8    31 1   
    21     8    32 1   
    22     9    10 1   
    23     9    33 1   
    24     9    34 1   
    25    10    11 2   
    26    11    12 1   
    27    11    13 1   
    28    12    35 1   
    29    12    36 1   
    30    12    37 1   
    31    13    14 ar  
    32    14    15 ar  
    33    14    38 1   
    34    15    16 1   
    35    15    18 ar  
    36    16    17 1   
    37    17    39 1   
    38    17    40 1   
    39    17    41 1   
    40    18    19 1   
    41    18    20 ar  
    42    19    42 1   
    43    20    21 1   
    44    21    43 1   
    45    21    44 1   
    46    21    45 1   
@<TRIPOS>SUBSTRUCTURE
     1 31J         1 TEMP              0 ****  ****    0 ROOT
