@<TRIPOS>MOLECULE
31J
   45    46     1     0     0
SMALL
bcc


@<TRIPOS>ATOM
      1 C21         -2.0180    -0.9530     0.0470 ca         1 31J       0.178100
      2 C23          0.2460    -1.5950     0.4190 c          1 31J       0.745800
      3 C01          8.2470    -0.2740     0.1650 c3         1 31J       0.122700
      4 O02          6.9010    -0.3370    -0.2270 os         1 31J      -0.392600
      5 C03          6.4210     0.8940    -0.7030 c3         1 31J       0.136400
      6 C04          4.9790     0.7550    -1.1190 c3         1 31J       0.140400
      7 O05          4.1800     0.4950     0.0080 os         1 31J      -0.400600
      8 C06          2.8250     0.3190    -0.3150 c3         1 31J       0.140400
      9 C07          2.0410     0.0590     0.9630 c3         1 31J      -0.026200
     10 C08          0.5930    -0.2050     0.6600 cc         1 31J      -0.225400
     11 C09         -0.3590     0.7600     0.5520 cd         1 31J       0.043600
     12 C10         -0.0630     2.2130     0.7430 c3         1 31J      -0.066900
     13 C11         -1.7210     0.3890     0.2390 ca         1 31J      -0.154800
     14 C12         -2.7640     1.3230     0.1220 ca         1 31J      -0.130000
     15 C13         -4.0400     0.9010    -0.1650 ca         1 31J       0.027100
     16 O14         -5.1210     1.6960    -0.2970 os         1 31J      -0.343900
     17 C15         -4.9600     3.0900    -0.1200 c3         1 31J       0.134700
     18 C16         -4.3090    -0.4730    -0.3510 ca         1 31J       0.163100
     19 O17         -5.5560    -0.8860    -0.6200 oh         1 31J      -0.482100
     20 C18         -3.2990    -1.4190    -0.2580 ca         1 31J      -0.108300
     21 C19         -3.5880    -2.8780    -0.4540 c3         1 31J      -0.029800
     22 O22         -1.0450    -1.8860     0.1460 os         1 31J      -0.328200
     23 O24          1.0180    -2.5270     0.4420 o          1 31J      -0.563500
     24 H1           8.4060     0.4390     0.9830 h1         1 31J       0.027033
     25 H2           8.5460    -1.2640     0.5090 h1         1 31J       0.027033
     26 H3           8.9040     0.0180    -0.6630 h1         1 31J       0.027033
     27 H4           6.5170     1.6780     0.0620 h1         1 31J       0.027200
     28 H5           6.9960     1.2320    -1.5770 h1         1 31J       0.027200
     29 H6           4.6740     1.6880    -1.6130 h1         1 31J       0.028700
     30 H7           4.8800    -0.0480    -1.8640 h1         1 31J       0.028700
     31 H8           2.4250     1.2100    -0.8210 h1         1 31J       0.023200
     32 H9           2.6970    -0.5230    -1.0100 h1         1 31J       0.023200
     33 H10          2.4700    -0.8020     1.4790 hc         1 31J       0.070700
     34 H11          2.1480     0.9090     1.6370 hc         1 31J       0.070700
     35 H12          0.9810     2.4080     0.9660 hc         1 31J       0.053367
     36 H13         -0.3200     2.7740    -0.1570 hc         1 31J       0.053367
     37 H14         -0.6610     2.6240     1.5570 hc         1 31J       0.053367
     38 H15         -2.5580     2.3740     0.2650 ha         1 31J       0.141000
     39 H16         -5.9400     3.5360    -0.2640 h1         1 31J       0.043367
     40 H17         -4.6040     3.3290     0.8850 h1         1 31J       0.043367
     41 H18         -4.2680     3.5120    -0.8520 h1         1 31J       0.043367
     42 H19         -6.1500    -0.1280    -0.6900 ho         1 31J       0.448000
     43 H20         -3.8760    -3.3520     0.4870 hc         1 31J       0.053033
     44 H21         -4.4030    -3.0310    -1.1580 hc         1 31J       0.053033
     45 H22         -2.7220    -3.4140    -0.8350 hc         1 31J       0.053033
@<TRIPOS>BOND
     1     1    13 ar  
     2     1    20 ar  
     3     1    22 1   
     4     2    10 1   
     5     2    22 1   
     6     2    23 2   
     7     3     4 1   
     8     3    24 1   
     9     3    25 1   
    10     3    26 1   
    11     4     5 1   
    12     5     6 1   
    13     5    27 1   
    14     5    28 1   
    15     6     7 1   
    16     6    29 1   
    17     6    30 1   
    18     7     8 1   
    19     8     9 1   
    20     8    31 1   
    21     8    32 1   
    22     9    10 1   
    23     9    33 1   
    24     9    34 1   
    25    10    11 2   
    26    11    12 1   
    27    11    13 1   
    28    12    35 1   
    29    12    36 1   
    30    12    37 1   
    31    13    14 ar  
    32    14    15 ar  
    33    14    38 1   
    34    15    16 1   
    35    15    18 ar  
    36    16    17 1   
    37    17    39 1   
    38    17    40 1   
    39    17    41 1   
    40    18    19 1   
    41    18    20 ar  
    42    19    42 1   
    43    20    21 1   
    44    21    43 1   
    45    21    44 1   
    46    21    45 1   
@<TRIPOS>SUBSTRUCTURE
     1 31J         1 TEMP              0 ****  ****    0 ROOT
