@<TRIPOS>MOLECULE
31K
   40    42     1     0     0
SMALL
abcg2


@<TRIPOS>ATOM
      1 C22         -1.0390     0.6210     0.4590 ca         1 31K      -0.100000
      2 C19         -4.4420     1.7680     0.5880 c6         1 31K       0.151600
      3 C18         -5.1430     0.4410     0.7720 c6         1 31K       0.174800
      4 C10          1.2020    -0.4000     0.0260 cp         1 31K      -0.024000
      5 C13         -0.9530    -1.5760    -0.4570 ca         1 31K      -0.092000
      6 C03          3.3560    -1.5080     0.2920 ca         1 31K      -0.084300
      7 C04          4.0010    -0.3020     0.0500 ca         1 31K       0.116100
      8 O05          5.3510    -0.2720     0.0650 oh         1 31K      -0.535100
      9 C06          3.2520     0.8560    -0.2050 ca         1 31K       0.049100
     10 O07          3.9930     1.9630    -0.4370 os         1 31K      -0.370100
     11 C08          3.3280     3.1780    -0.7160 c3         1 31K       0.157900
     12 C09          1.8690     0.8050    -0.2190 ca         1 31K      -0.147000
     13 C11          1.9630    -1.5370     0.2790 ca         1 31K      -0.100000
     14 C12         -0.2720    -0.4560     0.0100 cp         1 31K      -0.041000
     15 C14         -2.3390    -1.6230    -0.4700 ca         1 31K      -0.149000
     16 C15         -3.1140    -0.5450    -0.0320 ca         1 31K       0.249000
     17 N16         -4.4940    -0.5470    -0.0580 nh         1 31K      -0.805400
     18 C17         -5.1990    -1.7820    -0.2860 c3         1 31K       0.206100
     19 O20         -3.0730     1.6690     0.9410 os         1 31K      -0.342100
     20 C21         -2.4200     0.5860     0.4480 ca         1 31K       0.070100
     21 H1          -0.5570     1.5070     0.8580 ha         1 31K       0.125000
     22 H2          -4.5420     2.1010    -0.4500 h1         1 31K       0.060700
     23 H3          -4.8790     2.5270     1.2350 h1         1 31K       0.060700
     24 H4          -5.1470     0.1590     1.8340 h1         1 31K       0.048700
     25 H5          -6.1820     0.5490     0.4580 h1         1 31K       0.048700
     26 H6          -0.4040    -2.4300    -0.8340 ha         1 31K       0.115000
     27 H7           4.7400    -2.6500     1.4900 hc         1 31K       0.043367
     28 H8           3.5030    -3.6100     0.6860 hc         1 31K       0.043367
     29 H9           4.8600    -2.9630    -0.2320 hc         1 31K       0.043367
     30 H10          5.6630     0.6180    -0.1410 ho         1 31K       0.479000
     31 H11          2.6930     3.4940     0.1160 h1         1 31K       0.041033
     32 H12          4.1010     3.9260    -0.8720 h1         1 31K       0.041033
     33 H13          2.7180     3.1080    -1.6210 h1         1 31K       0.041033
     34 H14          1.2950     1.6940    -0.4450 ha         1 31K       0.120000
     35 H15          1.4670    -2.4760     0.4960 ha         1 31K       0.116000
     36 H16         -2.8190    -2.5180    -0.8400 ha         1 31K       0.113000
     37 H17         -6.2660    -1.5750    -0.3310 h1         1 31K       0.036367
     38 H18         -4.9150    -2.2250    -1.2420 h1         1 31K       0.036367
     39 H19         -5.0290    -2.5280     0.4990 h1         1 31K       0.036367
     40 C01          4.1560    -2.7460     0.5730 c3         1 31K      -0.033800
@<TRIPOS>BOND
     1     1    14 ar  
     2     1    20 ar  
     3     1    21 1   
     4     2     3 1   
     5     2    19 1   
     6     2    22 1   
     7     2    23 1   
     8     3    17 1   
     9     3    24 1   
    10     3    25 1   
    11     4    12 ar  
    12     4    13 ar  
    13     4    14 1   
    14     5    14 ar  
    15     5    15 ar  
    16     5    26 1   
    17     6     7 ar  
    18     6    13 ar  
    19     6    40 1   
    20     7     8 1   
    21     7     9 ar  
    22     8    30 1   
    23     9    10 1   
    24     9    12 ar  
    25    10    11 1   
    26    11    31 1   
    27    11    32 1   
    28    11    33 1   
    29    12    34 1   
    30    13    35 1   
    31    15    16 ar  
    32    15    36 1   
    33    16    17 1   
    34    16    20 ar  
    35    17    18 1   
    36    18    37 1   
    37    18    38 1   
    38    18    39 1   
    39    19    20 1   
    40    27    40 1   
    41    28    40 1   
    42    29    40 1   
@<TRIPOS>SUBSTRUCTURE
     1 31K         1 TEMP              0 ****  ****    0 ROOT
