@<TRIPOS>MOLECULE
31K
   40    42     1     0     0
SMALL
No Charge or Current Charge


@<TRIPOS>ATOM
      1 C22         -1.0200     0.6160     0.5240 ca         1 31K      -0.100000
      2 C19         -4.5050     1.8130     0.6340 c6         1 31K       0.151600
      3 C18         -5.2730     0.4710     0.7650 c6         1 31K       0.174800
      4 C10          1.2480    -0.4140     0.0380 cp         1 31K      -0.024000
      5 C13         -0.9410    -1.6030    -0.4460 ca         1 31K      -0.092000
      6 C03          3.4270    -1.5390     0.3080 ca         1 31K      -0.084300
      7 C04          4.0850    -0.3210     0.0400 ca         1 31K       0.116100
      8 O05          5.4510    -0.2510     0.0350 oh         1 31K      -0.535100
      9 C06          3.3450     0.8480    -0.2290 ca         1 31K       0.049100
     10 O07          4.0460     2.0150    -0.4900 os         1 31K      -0.370100
     11 C08          3.3860     3.2640    -0.7730 c3         1 31K       0.157900
     12 C09          1.9340     0.7970    -0.2290 ca         1 31K      -0.147000
     13 C11          2.0190    -1.5730     0.3050 ca         1 31K      -0.100000
     14 C12         -0.2480    -0.4680     0.0390 cp         1 31K      -0.041000
     15 C14         -2.3460    -1.6610    -0.4420 ca         1 31K      -0.149000
     16 C15         -3.1110    -0.5810     0.0450 ca         1 31K       0.249000
     17 N16         -4.5370    -0.6390     0.0940 nh         1 31K      -0.805400
     18 C17         -5.3150    -1.8230    -0.3440 c3         1 31K       0.206100
     19 O20         -3.1130     1.6710     1.0030 os         1 31K      -0.342100
     20 C21         -2.4240     0.5720     0.5200 ca         1 31K       0.070100
     21 H1          -0.5270     1.5020     0.9140 ha         1 31K       0.125000
     22 H2          -4.5520     2.1490    -0.4110 h1         1 31K       0.060700
     23 H3          -4.9710     2.5870     1.2600 h1         1 31K       0.060700
     24 H4          -5.4100     0.2400     1.8320 h1         1 31K       0.048700
     25 H5          -6.2730     0.5980     0.3250 h1         1 31K       0.048700
     26 H6          -0.3830    -2.4500    -0.8400 ha         1 31K       0.115000
     27 H7           4.8470    -2.6820     1.4930 hc         1 31K       0.043367
     28 H8           3.5600    -3.6680     0.7880 hc         1 31K       0.043367
     29 H9           4.8710    -3.0700    -0.2360 hc         1 31K       0.043367
     30 H10          5.6770     0.6830    -0.1740 ho         1 31K       0.479000
     31 H11          2.7520     3.5700     0.0690 h1         1 31K       0.041033
     32 H12          4.1270     4.0540    -0.9450 h1         1 31K       0.041033
     33 H13          2.7630     3.1800    -1.6730 h1         1 31K       0.041033
     34 H14          1.3520     1.6860    -0.4490 ha         1 31K       0.120000
     35 H15          1.5120    -2.5090     0.5260 ha         1 31K       0.116000
     36 H16         -2.8290    -2.5580    -0.8180 ha         1 31K       0.113000
     37 H17         -6.3920    -1.6580    -0.2070 h1         1 31K       0.036367
     38 H18         -5.1370    -2.0270    -1.4080 h1         1 31K       0.036367
     39 H19         -5.0310    -2.7080     0.2410 h1         1 31K       0.036367
     40 C01          4.2170    -2.8100     0.6050 c3         1 31K      -0.033800
@<TRIPOS>BOND
     1     1    14 ar  
     2     1    20 ar  
     3     1    21 1   
     4     2     3 1   
     5     2    19 1   
     6     2    22 1   
     7     2    23 1   
     8     3    17 1   
     9     3    24 1   
    10     3    25 1   
    11     4    12 ar  
    12     4    13 ar  
    13     4    14 1   
    14     5    14 ar  
    15     5    15 ar  
    16     5    26 1   
    17     6     7 ar  
    18     6    13 ar  
    19     6    40 1   
    20     7     8 1   
    21     7     9 ar  
    22     8    30 1   
    23     9    10 1   
    24     9    12 ar  
    25    10    11 1   
    26    11    31 1   
    27    11    32 1   
    28    11    33 1   
    29    12    34 1   
    30    13    35 1   
    31    15    16 ar  
    32    15    36 1   
    33    16    17 1   
    34    16    20 ar  
    35    17    18 1   
    36    18    37 1   
    37    18    38 1   
    38    18    39 1   
    39    19    20 1   
    40    27    40 1   
    41    28    40 1   
    42    29    40 1   
@<TRIPOS>SUBSTRUCTURE
     1 31K         1 TEMP              0 ****  ****    0 ROOT
