@<TRIPOS>MOLECULE
31L
   43    45     1     0     0
SMALL
No Charge or Current Charge


@<TRIPOS>ATOM
      1 C10          1.8290     0.2600     0.0100 cp         1 31L      -0.024000
      2 C11          2.5060     1.4930    -0.1580 ca         1 31L      -0.101000
      3 C12          0.3330     0.1960    -0.0030 cp         1 31L      -0.064000
      4 C14         -1.8550     1.1740     0.5430 ca         1 31L      -0.165500
      5 C15         -2.5230     0.0760    -0.0280 ca         1 31L       0.300000
      6 C16         -1.7550    -0.9660    -0.5840 ca         1 31L      -0.165500
      7 C20         -6.1910     1.2090    -0.0470 c6         1 31L       0.147100
      8 C22         -6.1400    -1.1440     0.4530 c6         1 31L       0.147100
      9 C23         -4.6750    -1.2760    -0.0630 c6         1 31L       0.160800
     10 C03          3.9130     1.5700    -0.1490 ca         1 31L      -0.083300
     11 C04          4.6640     0.3900     0.0320 ca         1 31L       0.116100
     12 O05          6.0320     0.4270     0.0460 oh         1 31L      -0.534100
     13 C06          4.0180    -0.8500     0.2020 ca         1 31L       0.049100
     14 O07          4.8070    -1.9760     0.3800 os         1 31L      -0.370100
     15 C08          4.2470    -3.2900     0.5600 c3         1 31L       0.157900
     16 C09          2.6070    -0.9100     0.1910 ca         1 31L      -0.149000
     17 C13         -0.4500     1.2360     0.5560 ca         1 31L      -0.069500
     18 C17         -0.3500    -0.9070    -0.5730 ca         1 31L      -0.069500
     19 N18         -3.9390     0.0310    -0.0300 nh         1 31L      -0.784400
     20 C19         -4.7280     1.1820    -0.5840 c6         1 31L       0.160800
     21 O21         -6.8320    -0.0750    -0.2340 os         1 31L      -0.444000
     22 H1           1.9280     2.4010    -0.3120 ha         1 31L       0.116000
     23 H2          -2.4240     1.9790     0.9960 ha         1 31L       0.112500
     24 H3          -2.2400    -1.8210    -1.0420 ha         1 31L       0.112500
     25 H4          -6.1900     1.4600     1.0240 h1         1 31L       0.052950
     26 H5          -6.7670     1.9810    -0.5760 h1         1 31L       0.052950
     27 H6          -6.6790    -2.0870     0.2880 h1         1 31L       0.052950
     28 H7          -6.1380    -0.9370     1.5330 h1         1 31L       0.052950
     29 H8          -4.1570    -2.0200     0.5610 h1         1 31L       0.047700
     30 H9          -4.6980    -1.6680    -1.0910 h1         1 31L       0.047700
     31 H10          5.2290     3.1630     0.5260 hc         1 31L       0.043700
     32 H11          5.2440     2.9100    -1.2270 hc         1 31L       0.043700
     33 H12          3.8800     3.7340    -0.4620 hc         1 31L       0.043700
     34 H13          6.3290    -0.4990     0.1850 ho         1 31L       0.479000
     35 H14          3.6420    -3.5790    -0.3090 h1         1 31L       0.041033
     36 H15          5.0460    -4.0320     0.6790 h1         1 31L       0.041033
     37 H16          3.6150    -3.3250     1.4570 h1         1 31L       0.041033
     38 H17          2.0960    -1.8560     0.3360 ha         1 31L       0.118000
     39 H18          0.0340     2.0920     1.0200 ha         1 31L       0.111000
     40 H19          0.2130    -1.7190    -1.0260 ha         1 31L       0.111000
     41 H20         -4.7570     1.1150    -1.6810 h1         1 31L       0.047700
     42 H21         -4.2530     2.1410    -0.3330 h1         1 31L       0.047700
     43 C01          4.6020     2.9180    -0.3390 c3         1 31L      -0.033800
@<TRIPOS>BOND
     1     1     2 ar  
     2     1     3 1   
     3     1    16 ar  
     4     2    10 ar  
     5     2    22 1   
     6     3    17 ar  
     7     3    18 ar  
     8     4     5 ar  
     9     4    17 ar  
    10     4    23 1   
    11     5     6 ar  
    12     5    19 1   
    13     6    18 ar  
    14     6    24 1   
    15     7    20 1   
    16     7    21 1   
    17     7    25 1   
    18     7    26 1   
    19     8     9 1   
    20     8    21 1   
    21     8    27 1   
    22     8    28 1   
    23     9    19 1   
    24     9    29 1   
    25     9    30 1   
    26    10    11 ar  
    27    10    43 1   
    28    11    12 1   
    29    11    13 ar  
    30    12    34 1   
    31    13    14 1   
    32    13    16 ar  
    33    14    15 1   
    34    15    35 1   
    35    15    36 1   
    36    15    37 1   
    37    16    38 1   
    38    17    39 1   
    39    18    40 1   
    40    19    20 1   
    41    20    41 1   
    42    20    42 1   
    43    31    43 1   
    44    32    43 1   
    45    33    43 1   
@<TRIPOS>SUBSTRUCTURE
     1 31L         1 TEMP              0 ****  ****    0 ROOT
