@<TRIPOS>MOLECULE
31L
   43    45     1     0     0
SMALL
abcg2


@<TRIPOS>ATOM
      1 C10          1.7860     0.2390     0.0300 cp         1 31L      -0.024000
      2 C11          2.4530     1.4320    -0.2250 ca         1 31L      -0.101000
      3 C12          0.3130     0.1800     0.0540 cp         1 31L      -0.064000
      4 C14         -1.8370     1.2010     0.5440 ca         1 31L      -0.165500
      5 C15         -2.5370     0.0760     0.0790 ca         1 31L       0.300000
      6 C16         -1.7680    -0.9930    -0.3990 ca         1 31L      -0.165500
      7 C20         -6.1090     1.1330     0.1520 c6         1 31L       0.147100
      8 C22         -6.0450    -1.1720     0.0790 c6         1 31L       0.147100
      9 C23         -4.5850    -1.1750    -0.3340 c6         1 31L       0.160800
     10 C03          3.8440     1.5080    -0.2620 ca         1 31L      -0.083300
     11 C04          4.5830     0.3520    -0.0410 ca         1 31L       0.116100
     12 O05          5.9310     0.4220    -0.0810 oh         1 31L      -0.534100
     13 C06          3.9280    -0.8600     0.2210 ca         1 31L       0.049100
     14 O07          4.7520    -1.9100     0.4340 os         1 31L      -0.370100
     15 C08          4.1830    -3.1700     0.7270 c3         1 31L       0.157900
     16 C09          2.5450    -0.9130     0.2580 ca         1 31L      -0.149000
     17 C13         -0.4560     1.2470     0.5270 ca         1 31L      -0.069500
     18 C17         -0.3830    -0.9370    -0.4020 ca         1 31L      -0.069500
     19 N18         -3.9270     0.0330     0.1290 nh         1 31L      -0.784400
     20 C19         -4.6540     1.2340    -0.2610 c6         1 31L       0.160800
     21 O21         -6.7200    -0.0220    -0.3730 os         1 31L      -0.444000
     22 H1           1.8850     2.3330    -0.4250 ha         1 31L       0.116000
     23 H2          -2.3680     2.0480     0.9550 ha         1 31L       0.112500
     24 H3          -2.2370    -1.8810    -0.7970 ha         1 31L       0.112500
     25 H4          -6.1790     1.1400     1.2490 h1         1 31L       0.052950
     26 H5          -6.6550     1.9990    -0.2260 h1         1 31L       0.052950
     27 H6          -6.5450    -2.0410    -0.3510 h1         1 31L       0.052950
     28 H7          -6.1130    -1.2500     1.1730 h1         1 31L       0.052950
     29 H8          -4.1170    -2.0490     0.1220 h1         1 31L       0.047700
     30 H9          -4.5050    -1.2910    -1.4250 h1         1 31L       0.047700
     31 H10          5.2300     3.0790     0.2550 hc         1 31L       0.043700
     32 H11          5.1300     2.7560    -1.4660 hc         1 31L       0.043700
     33 H12          3.8220     3.6130    -0.6580 hc         1 31L       0.043700
     34 H13          6.3120    -0.4420     0.1140 ho         1 31L       0.479000
     35 H14          3.5560    -3.5330    -0.0920 h1         1 31L       0.041033
     36 H15          5.0120    -3.8590     0.8670 h1         1 31L       0.041033
     37 H16          3.5890    -3.1430     1.6430 h1         1 31L       0.041033
     38 H17          2.0430    -1.8440     0.4890 ha         1 31L       0.118000
     39 H18          0.0330     2.1300     0.9210 ha         1 31L       0.111000
     40 H19          0.1610    -1.7830    -0.8060 ha         1 31L       0.111000
     41 H20         -4.5850     1.3940    -1.3470 h1         1 31L       0.047700
     42 H21         -4.2340     2.1140     0.2220 h1         1 31L       0.047700
     43 C01          4.5430     2.8050    -0.5470 c3         1 31L      -0.033800
@<TRIPOS>BOND
     1     1     2 ar  
     2     1     3 1   
     3     1    16 ar  
     4     2    10 ar  
     5     2    22 1   
     6     3    17 ar  
     7     3    18 ar  
     8     4     5 ar  
     9     4    17 ar  
    10     4    23 1   
    11     5     6 ar  
    12     5    19 1   
    13     6    18 ar  
    14     6    24 1   
    15     7    20 1   
    16     7    21 1   
    17     7    25 1   
    18     7    26 1   
    19     8     9 1   
    20     8    21 1   
    21     8    27 1   
    22     8    28 1   
    23     9    19 1   
    24     9    29 1   
    25     9    30 1   
    26    10    11 ar  
    27    10    43 1   
    28    11    12 1   
    29    11    13 ar  
    30    12    34 1   
    31    13    14 1   
    32    13    16 ar  
    33    14    15 1   
    34    15    35 1   
    35    15    36 1   
    36    15    37 1   
    37    16    38 1   
    38    17    39 1   
    39    18    40 1   
    40    19    20 1   
    41    20    41 1   
    42    20    42 1   
    43    31    43 1   
    44    32    43 1   
    45    33    43 1   
@<TRIPOS>SUBSTRUCTURE
     1 31L         1 TEMP              0 ****  ****    0 ROOT
