@<TRIPOS>MOLECULE
31N
   65    70     1     0     0
SMALL
abcg2


@<TRIPOS>ATOM
      1 C2          -7.1240    -0.0650    -0.1620 ca         1 31N       0.182000
      2 C3          -5.7210     0.0500    -0.2500 ca         1 31N       0.301000
      3 C7          -5.6240    -2.2800     0.0560 ca         1 31N       0.134000
      4 C10         -2.7520    -0.7820     1.0510 c3         1 31N       0.196300
      5 C11         -1.2400    -0.5400     0.9090 c6         1 31N       0.154000
      6 C12         -0.8890     0.8110     0.2820 c6         1 31N      -0.094400
      7 C13          0.6020     0.7900    -0.1080 c6         1 31N      -0.087900
      8 C15          0.6730    -1.6730     0.0770 c6         1 31N       0.170600
      9 C18          0.9470    -0.2970     2.0930 c6         1 31N      -0.087900
     10 N19          2.7410    -0.4430     0.4630 n7         1 31N      -0.861400
     11 C20          3.2800    -0.2040    -0.8660 c3         1 31N       0.123500
     12 C21          4.7690    -0.4120    -0.8600 ca         1 31N       0.368300
     13 C           -7.2600     2.3120    -0.4860 ca         1 31N      -0.170000
     14 F           -4.9690    -3.4420     0.1760 f          1 31N      -0.165000
     15 N           -5.1080     1.2460    -0.4240 nb         1 31N      -0.792000
     16 C1          -7.8870     1.1250    -0.2900 ca         1 31N      -0.013000
     17 C4          -5.8380     2.3150    -0.5420 ca         1 31N       0.613300
     18 N5          -7.7530    -1.2380     0.0390 nb         1 31N      -0.620000
     19 C6          -7.0230    -2.3150     0.1510 ca         1 31N       0.311900
     20 C8          -4.9290    -1.1220    -0.1580 ca         1 31N      -0.070300
     21 C14          1.2960    -0.3800     0.6050 c6         1 31N       0.152200
     22 O16         -0.7410    -1.5750     0.0700 os         1 31N      -0.463000
     23 C17         -0.5450    -0.6260     2.2710 c6         1 31N      -0.094400
     24 N22          5.4530     0.2870     0.0480 nb         1 31N      -0.705000
     25 C23          6.7570     0.1480     0.1060 ca         1 31N       0.439900
     26 C24          7.4820    -0.6880    -0.7460 ca         1 31N       0.034100
     27 C25          6.7860    -1.4020    -1.6950 ca         1 31N      -0.068000
     28 C26          5.4010    -1.2670    -1.7470 ca         1 31N      -0.153000
     29 O27         -3.3550     0.2930     1.7290 oh         1 31N      -0.725000
     30 N28          7.4530     0.8480     1.0820 ns         1 31N      -0.318900
     31 C29          8.8000     1.0020     1.0570 c          1 31N       0.547000
     32 C30          9.4810     0.3480    -0.1300 c6         1 31N       0.070600
     33 O31          8.8190    -0.8140    -0.5940 os         1 31N      -0.318100
     34 O32          9.4150     1.6500     1.8770 o          1 31N      -0.518000
     35 C33         -3.8510     3.5600    -0.8080 c3         1 31N       0.155900
     36 H1          -3.1850    -0.3150    -1.0310 hc         1 31N       0.076700
     37 H2          -3.0700    -2.0250    -0.6790 hc         1 31N       0.076700
     38 H3          -2.8870    -1.6610     1.6930 h1         1 31N       0.076700
     39 H4          -1.5050     1.0260    -0.5950 hc         1 31N       0.055700
     40 H5          -1.0820     1.6060     1.0060 hc         1 31N       0.055700
     41 H6           0.7080     0.6870    -1.1910 hc         1 31N       0.047950
     42 H7           1.0870     1.7290     0.1700 hc         1 31N       0.047950
     43 H8           0.9940    -1.8750    -0.9490 h1         1 31N       0.048700
     44 H9           1.0050    -2.5180     0.6960 h1         1 31N       0.048700
     45 H10          1.5690    -1.0000     2.6520 hc         1 31N       0.047950
     46 H11          1.1810     0.7050     2.4650 hc         1 31N       0.047950
     47 H12          2.8270    -0.8950    -1.5780 h1         1 31N       0.043700
     48 H13         -7.8090     3.2380    -0.5940 ha         1 31N       0.144000
     49 H14         -8.9660     1.0640    -0.2320 ha         1 31N       0.142000
     50 H15         -7.5260    -3.2610     0.3190 h4         1 31N       0.040100
     51 H16         -1.0190     0.0570     2.9770 hc         1 31N       0.055700
     52 H17         -0.6780    -1.6350     2.6710 hc         1 31N       0.055700
     53 H18          7.3080    -2.0680    -2.3690 ha         1 31N       0.138000
     54 H19          4.8270    -1.8220    -2.4760 ha         1 31N       0.132000
     55 H20         -3.6060     0.9620     1.0770 ho         1 31N       0.521000
     56 H21          6.9180     1.3300     1.7930 hn         1 31N       0.178000
     57 H22          9.5600     1.0970    -0.9290 h1         1 31N       0.086700
     58 H23         10.4880     0.0510     0.1570 h1         1 31N       0.086700
     59 H24         -3.3810     3.2680     0.1330 h1         1 31N       0.049367
     60 H25         -3.4680     2.9250    -1.6070 h1         1 31N       0.049367
     61 H26         -3.6090     4.5980    -1.0190 h1         1 31N       0.049367
     62 H27          3.1670     0.2180     1.1010 hn         1 31N       0.433000
     63 H28          3.0730     0.8070    -1.2460 h1         1 31N       0.043700
     64 C9          -3.4380    -1.0770    -0.2920 c3         1 31N      -0.055100
     65 O           -5.2690     3.4990    -0.7240 os         1 31N      -0.453300
@<TRIPOS>BOND
     1     1     2 ar  
     2     1    16 ar  
     3     1    18 ar  
     4     2    15 ar  
     5     2    20 ar  
     6     3    14 1   
     7     3    19 ar  
     8     3    20 ar  
     9     4     5 1   
    10     4    29 1   
    11     4    38 1   
    12     4    64 1   
    13     5     6 1   
    14     5    22 1   
    15     5    23 1   
    16     6     7 1   
    17     6    39 1   
    18     6    40 1   
    19     7    21 1   
    20     7    41 1   
    21     7    42 1   
    22     8    21 1   
    23     8    22 1   
    24     8    43 1   
    25     8    44 1   
    26     9    21 1   
    27     9    23 1   
    28     9    45 1   
    29     9    46 1   
    30    10    11 1   
    31    10    21 1   
    32    10    62 1   
    33    11    12 1   
    34    11    47 1   
    35    11    63 1   
    36    12    24 ar  
    37    12    28 ar  
    38    13    16 ar  
    39    13    17 ar  
    40    13    48 1   
    41    15    17 ar  
    42    16    49 1   
    43    17    65 1   
    44    18    19 ar  
    45    19    50 1   
    46    20    64 1   
    47    23    51 1   
    48    23    52 1   
    49    24    25 ar  
    50    25    26 ar  
    51    25    30 1   
    52    26    27 ar  
    53    26    33 1   
    54    27    28 ar  
    55    27    53 1   
    56    28    54 1   
    57    29    55 1   
    58    30    31 1   
    59    30    56 1   
    60    31    32 1   
    61    31    34 2   
    62    32    33 1   
    63    32    57 1   
    64    32    58 1   
    65    35    59 1   
    66    35    60 1   
    67    35    61 1   
    68    35    65 1   
    69    36    64 1   
    70    37    64 1   
@<TRIPOS>SUBSTRUCTURE
     1 31N         1 TEMP              0 ****  ****    0 ROOT
