@<TRIPOS>MOLECULE
31N
   65    70     1     0     0
SMALL
No Charge or Current Charge


@<TRIPOS>ATOM
      1 C2          -7.3540    -0.2340    -0.2340 ca         1 31N       0.182000
      2 C3          -5.9700     0.1390    -0.2860 ca         1 31N       0.301000
      3 C7          -5.4810    -2.1990    -0.7130 ca         1 31N       0.134000
      4 C10         -2.8220    -0.3980     0.7340 c3         1 31N       0.196300
      5 C11         -1.2420    -0.3670     0.6970 c6         1 31N       0.154000
      6 C12         -0.6640     0.8340    -0.1250 c6         1 31N      -0.094400
      7 C13          0.8950     0.7680    -0.1630 c6         1 31N      -0.087900
      8 C15          0.6590    -1.7410    -0.0400 c6         1 31N       0.170600
      9 C18          0.9230    -0.4030     2.0690 c6         1 31N      -0.087900
     10 N19          2.8800    -0.6160     0.5640 n7         1 31N      -0.861400
     11 C20          3.5760    -0.8360    -0.7390 c3         1 31N       0.123500
     12 C21          5.1080    -0.9010    -0.6040 ca         1 31N       0.368300
     13 C           -7.8430     2.1040     0.1970 ca         1 31N      -0.170000
     14 F           -4.6160    -3.2160    -0.9440 f          1 31N      -0.165000
     15 N           -5.5510     1.4200    -0.0880 nb         1 31N      -0.792000
     16 C1          -8.2900     0.7860     0.0130 ca         1 31N      -0.013000
     17 C4          -6.4740     2.3810     0.1390 ca         1 31N       0.613300
     18 N5          -7.7880    -1.5080    -0.4070 nb         1 31N      -0.620000
     19 C6          -6.8600    -2.4680    -0.6380 ca         1 31N       0.311900
     20 C8          -5.0140    -0.8770    -0.5430 ca         1 31N      -0.070300
     21 C14          1.3990    -0.5040     0.5890 c6         1 31N       0.152200
     22 O16         -0.7910    -1.6020     0.0710 os         1 31N      -0.463000
     23 C17         -0.6330    -0.3220     2.1350 c6         1 31N      -0.094400
     24 N22          5.7500     0.2730    -0.3560 nb         1 31N      -0.705000
     25 C23          7.0900     0.2140    -0.2390 ca         1 31N       0.439900
     26 C24          7.8600    -0.9670    -0.3420 ca         1 31N       0.034100
     27 C25          7.1930    -2.1760    -0.5770 ca         1 31N      -0.068000
     28 C26          5.7910    -2.1340    -0.7150 ca         1 31N      -0.153000
     29 O27         -3.3660     0.7700     1.3750 oh         1 31N      -0.725000
     30 N28          7.7140     1.4160     0.0810 ns         1 31N      -0.318900
     31 C29          9.0690     1.5240     0.2710 c          1 31N       0.547000
     32 C30          9.8790     0.3710    -0.3710 c6         1 31N       0.070600
     33 O31          9.2360    -0.9240    -0.1790 os         1 31N      -0.318100
     34 O32          9.5690     2.4160     0.9420 o          1 31N      -0.518000
     35 C33         -4.6790     4.0490     0.2650 c3         1 31N       0.155900
     36 H1          -3.3600     0.3500    -1.2420 hc         1 31N       0.076700
     37 H2          -2.9990    -1.3480    -1.2110 hc         1 31N       0.076700
     38 H3          -3.0890    -1.2880     1.3230 h1         1 31N       0.076700
     39 H4          -1.0530     0.8170    -1.1510 hc         1 31N       0.055700
     40 H5          -0.9870     1.7870     0.3140 hc         1 31N       0.055700
     41 H6           1.2270     0.7580    -1.2090 hc         1 31N       0.047950
     42 H7           1.3200     1.6740     0.2910 hc         1 31N       0.047950
     43 H8           0.9190    -1.8400    -1.1030 h1         1 31N       0.048700
     44 H9           0.9670    -2.6640     0.4710 h1         1 31N       0.048700
     45 H10          1.2710    -1.2760     2.6380 hc         1 31N       0.047950
     46 H11          1.3630     0.4790     2.5540 hc         1 31N       0.047950
     47 H12          3.2300    -1.7690    -1.2020 h1         1 31N       0.043700
     48 H13         -8.5460     2.9070     0.3860 ha         1 31N       0.144000
     49 H14         -9.3510     0.5540     0.0600 ha         1 31N       0.142000
     50 H15         -7.2340    -3.4830    -0.7690 h4         1 31N       0.040100
     51 H16         -0.9350     0.6010     2.6480 hc         1 31N       0.055700
     52 H17         -1.0270    -1.1540     2.7360 hc         1 31N       0.055700
     53 H18          7.7410    -3.1130    -0.6530 ha         1 31N       0.138000
     54 H19          5.2330    -3.0490    -0.9000 ha         1 31N       0.132000
     55 H20         -4.1650     1.0370     0.8310 ho         1 31N       0.521000
     56 H21          7.1230     2.1540     0.4360 hn         1 31N       0.178000
     57 H22          9.9500     0.5830    -1.4460 h1         1 31N       0.086700
     58 H23         10.8870     0.3580     0.0640 h1         1 31N       0.086700
     59 H24         -4.1010     3.5330     1.0430 h1         1 31N       0.049367
     60 H25         -4.2500     3.7960    -0.7140 h1         1 31N       0.049367
     61 H26         -4.5630     5.1290     0.4170 h1         1 31N       0.049367
     62 H27          3.2800     0.2330     0.9850 hn         1 31N       0.433000
     63 H28          3.3400    -0.0260    -1.4410 h1         1 31N       0.043700
     64 C9          -3.5110    -0.5590    -0.6480 c3         1 31N      -0.055100
     65 O           -6.0710     3.6810     0.3270 os         1 31N      -0.453300
@<TRIPOS>BOND
     1     1     2 ar  
     2     1    16 ar  
     3     1    18 ar  
     4     2    15 ar  
     5     2    20 ar  
     6     3    14 1   
     7     3    19 ar  
     8     3    20 ar  
     9     4     5 1   
    10     4    29 1   
    11     4    38 1   
    12     4    64 1   
    13     5     6 1   
    14     5    22 1   
    15     5    23 1   
    16     6     7 1   
    17     6    39 1   
    18     6    40 1   
    19     7    21 1   
    20     7    41 1   
    21     7    42 1   
    22     8    21 1   
    23     8    22 1   
    24     8    43 1   
    25     8    44 1   
    26     9    21 1   
    27     9    23 1   
    28     9    45 1   
    29     9    46 1   
    30    10    11 1   
    31    10    21 1   
    32    10    62 1   
    33    11    12 1   
    34    11    47 1   
    35    11    63 1   
    36    12    24 ar  
    37    12    28 ar  
    38    13    16 ar  
    39    13    17 ar  
    40    13    48 1   
    41    15    17 ar  
    42    16    49 1   
    43    17    65 1   
    44    18    19 ar  
    45    19    50 1   
    46    20    64 1   
    47    23    51 1   
    48    23    52 1   
    49    24    25 ar  
    50    25    26 ar  
    51    25    30 1   
    52    26    27 ar  
    53    26    33 1   
    54    27    28 ar  
    55    27    53 1   
    56    28    54 1   
    57    29    55 1   
    58    30    31 1   
    59    30    56 1   
    60    31    32 1   
    61    31    34 2   
    62    32    33 1   
    63    32    57 1   
    64    32    58 1   
    65    35    59 1   
    66    35    60 1   
    67    35    61 1   
    68    35    65 1   
    69    36    64 1   
    70    37    64 1   
@<TRIPOS>SUBSTRUCTURE
     1 31N         1 TEMP              0 ****  ****    0 ROOT
