@<TRIPOS>MOLECULE
31O
   51    54     1     0     0
SMALL
bcc


@<TRIPOS>ATOM
      1 CAW          0.4830    -2.6260     3.0810 c3         1 31O       0.127700
      2 OAU         -0.5170    -1.9270     2.3390 os         1 31O      -0.418900
      3 CAT         -1.3100    -2.6410     1.5570 c          1 31O       0.640100
      4 OAV         -1.2670    -3.8430     1.4720 o          1 31O      -0.521000
      5 CAS         -2.2550    -1.7700     0.7560 c3         1 31O      -0.128700
      6 CBD         -3.6710    -2.3300     0.7760 c3         1 31O      -0.084100
      7 CAI         -1.7120    -1.7290    -0.6950 c3         1 31O       0.100200
      8 NAH         -0.2800    -1.5110    -0.7840 n2         1 31O      -0.571900
      9 CAJ         -2.4080    -0.7510    -1.5750 cc         1 31O       0.373800
     10 NAN         -3.0820    -1.0120    -2.6520 nd         1 31O      -0.333000
     11 NAO         -3.4320     0.1720    -3.2150 nd         1 31O      -0.357000
     12 CAP         -2.9620     1.1370    -2.4770 cc         1 31O       0.403800
     13 CAR         -3.0960     2.5850    -2.7630 c3         1 31O      -0.123400
     14 NAK         -2.3000     0.5970    -1.4100 na         1 31O      -0.270800
     15 CAE         -1.6660     1.2380    -0.3270 ca         1 31O      -0.021200
     16 CAF         -2.2840     2.3070     0.3000 ca         1 31O      -0.098000
     17 CAA         -1.7010     2.9300     1.3910 ca         1 31O      -0.196000
     18 CAB         -0.4850     2.4650     1.8830 ca         1 31O       0.145100
     19 OAL          0.1550     2.9800     2.9410 os         1 31O      -0.309900
     20 CAM         -0.4380     4.0660     3.6310 c3         1 31O       0.122700
     21 CAC          0.1310     1.3830     1.2560 ca         1 31O      -0.123000
     22 CAD         -0.4400     0.7640     0.1530 ca         1 31O      -0.144900
     23 CAG          0.2570    -0.4180    -0.4200 ce         1 31O       0.546500
     24 CAQ          1.7330    -0.3330    -0.5410 ca         1 31O      -0.143900
     25 CAX          2.5120    -1.4740    -0.3550 ca         1 31O      -0.085500
     26 CAY          3.8880    -1.4240    -0.4950 ca         1 31O      -0.130000
     27 CAZ          4.4880    -0.2230    -0.8430 ca         1 31O       0.041400
     28 CL1          6.2080    -0.1540    -1.0240 cl         1 31O      -0.105400
     29 CBA          3.7360     0.9240    -1.0430 ca         1 31O      -0.130000
     30 CBB          2.3610     0.8630    -0.8830 ca         1 31O      -0.085500
     31 H1           1.0440    -1.8660     3.6150 h1         1 31O       0.049367
     32 H2           0.0370    -3.3180     3.7940 h1         1 31O       0.049367
     33 H3           1.1550    -3.1750     2.4210 h1         1 31O       0.049367
     34 H4          -2.2590    -0.7710     1.1910 hc         1 31O       0.079700
     35 H5          -3.7100    -3.3310     0.3460 hc         1 31O       0.052700
     36 H6          -4.0520    -2.3810     1.7960 hc         1 31O       0.052700
     37 H7          -4.3440    -1.6900     0.2060 hc         1 31O       0.052700
     38 H8          -1.9090    -2.7130    -1.1270 h1         1 31O       0.121700
     39 H9          -3.8960     3.0410    -2.1790 hc         1 31O       0.061033
     40 H10         -2.1750     3.1240    -2.5460 hc         1 31O       0.061033
     41 H11         -3.3370     2.7170    -3.8150 hc         1 31O       0.061033
     42 H12         -3.2500     2.6540    -0.0390 ha         1 31O       0.147000
     43 H13         -2.2240     3.7590     1.8480 ha         1 31O       0.145000
     44 H14          0.2400     4.3220     4.4410 h1         1 31O       0.046367
     45 H15         -0.5610     4.9380     2.9850 h1         1 31O       0.046367
     46 H16         -1.4080     3.7960     4.0560 h1         1 31O       0.046367
     47 H17          1.0710     1.0220     1.6530 ha         1 31O       0.164000
     48 H18          2.0390    -2.4090    -0.0860 ha         1 31O       0.147500
     49 H19          4.4850    -2.3110    -0.3310 ha         1 31O       0.151000
     50 H20          4.2110     1.8540    -1.3210 ha         1 31O       0.151000
     51 H21          1.7770     1.7610    -1.0420 ha         1 31O       0.147500
@<TRIPOS>BOND
     1     1     2 1   
     2     1    31 1   
     3     1    32 1   
     4     1    33 1   
     5     2     3 1   
     6     3     4 2   
     7     3     5 1   
     8     5     6 1   
     9     5     7 1   
    10     5    34 1   
    11     6    35 1   
    12     6    36 1   
    13     6    37 1   
    14     7     8 1   
    15     7     9 1   
    16     7    38 1   
    17     8    23 2   
    18     9    10 2   
    19     9    14 1   
    20    10    11 1   
    21    11    12 2   
    22    12    13 1   
    23    12    14 1   
    24    13    39 1   
    25    13    40 1   
    26    13    41 1   
    27    14    15 1   
    28    15    16 ar  
    29    15    22 ar  
    30    16    17 ar  
    31    16    42 1   
    32    17    18 ar  
    33    17    43 1   
    34    18    19 1   
    35    18    21 ar  
    36    19    20 1   
    37    20    44 1   
    38    20    45 1   
    39    20    46 1   
    40    21    22 ar  
    41    21    47 1   
    42    22    23 1   
    43    23    24 1   
    44    24    25 ar  
    45    24    30 ar  
    46    25    26 ar  
    47    25    48 1   
    48    26    27 ar  
    49    26    49 1   
    50    27    28 1   
    51    27    29 ar  
    52    29    30 ar  
    53    29    50 1   
    54    30    51 1   
@<TRIPOS>SUBSTRUCTURE
     1 31O         1 TEMP              0 ****  ****    0 ROOT
