@<TRIPOS>MOLECULE
31O
   51    54     1     0     0
SMALL
No Charge or Current Charge


@<TRIPOS>ATOM
      1 CAW         -0.3270    -3.3730     3.7950 c3         1 31O       0.150900
      2 OAU         -0.9900    -2.4750     2.8870 os         1 31O      -0.442100
      3 CAT         -1.5070    -2.9950     1.7280 c          1 31O       0.591100
      4 OAV         -1.4830    -4.1840     1.4340 o          1 31O      -0.472000
      5 CAS         -2.1950    -1.9180     0.8720 c3         1 31O      -0.128700
      6 CBD         -3.7250    -2.1650     0.8190 c3         1 31O      -0.084100
      7 CAI         -1.5400    -1.8390    -0.5380 c3         1 31O       0.100200
      8 NAH         -0.0860    -1.5710    -0.4200 n2         1 31O      -0.571900
      9 CAJ         -2.2000    -0.8510    -1.4840 cc         1 31O       0.373800
     10 NAN         -2.8300    -1.1400    -2.6140 nd         1 31O      -0.333000
     11 NAO         -3.2060     0.0490    -3.2160 nd         1 31O      -0.357000
     12 CAP         -2.8010     1.0520    -2.4500 cc         1 31O       0.403800
     13 CAR         -2.9330     2.5100    -2.7910 c3         1 31O      -0.123400
     14 NAK         -2.1940     0.5080    -1.3450 na         1 31O      -0.270800
     15 CAE         -1.5910     1.1940    -0.2880 ca         1 31O      -0.021200
     16 CAF         -2.2680     2.2640     0.3320 ca         1 31O      -0.080000
     17 CAA         -1.6860     2.9600     1.4030 ca         1 31O      -0.178000
     18 CAB         -0.4160     2.5800     1.8790 ca         1 31O       0.145100
     19 OAL          0.2070     3.2200     2.9310 os         1 31O      -0.333100
     20 CAM         -0.3930     4.3350     3.6160 c3         1 31O       0.145900
     21 CAC          0.2500     1.5010     1.2800 ca         1 31O      -0.105000
     22 CAD         -0.3210     0.7960     0.1970 ca         1 31O      -0.144900
     23 CAG          0.4300    -0.3750    -0.3750 ce         1 31O       0.546500
     24 CAQ          1.8800    -0.1820    -0.7200 ca         1 31O      -0.143900
     25 CAX          2.7740    -1.2800    -0.7500 ca         1 31O      -0.067500
     26 CAY          4.1210    -1.0960    -1.1080 ca         1 31O      -0.112000
     27 CAZ          4.5880     0.1790    -1.4570 ca         1 31O       0.133000
     28 Cl1          6.2730     0.4050    -1.9080 cl         1 31O      -0.197000
     29 CBA          3.7100     1.2720    -1.4570 ca         1 31O      -0.112000
     30 CBB          2.3620     1.0930    -1.0980 ca         1 31O      -0.067500
     31 H1           0.0400    -2.8270     4.6730 h1         1 31O       0.049367
     32 H2          -1.0130    -4.1560     4.1430 h1         1 31O       0.049367
     33 H3           0.5330    -3.8550     3.3100 h1         1 31O       0.049367
     34 H4          -2.0470    -0.9600     1.3820 hc         1 31O       0.079700
     35 H5          -3.9540    -3.0960     0.2860 hc         1 31O       0.052700
     36 H6          -4.1370    -2.2420     1.8330 hc         1 31O       0.052700
     37 H7          -4.2410    -1.3410     0.3120 hc         1 31O       0.052700
     38 H8          -1.6740    -2.8260    -1.0040 h1         1 31O       0.121700
     39 H9          -3.8340     2.9360    -2.3350 hc         1 31O       0.061033
     40 H10         -2.0640     3.0780    -2.4410 hc         1 31O       0.061033
     41 H11         -3.0070     2.6500    -3.8750 hc         1 31O       0.061033
     42 H12         -3.2610     2.5550    -0.0050 ha         1 31O       0.129000
     43 H13         -2.2360     3.7810     1.8530 ha         1 31O       0.127000
     44 H14          0.2700     4.6920     4.4130 h1         1 31O       0.046367
     45 H15         -0.5720     5.1670     2.9240 h1         1 31O       0.046367
     46 H16         -1.3480     4.0440     4.0720 h1         1 31O       0.046367
     47 H17          1.2210     1.2050     1.6710 ha         1 31O       0.146000
     48 H18          2.4320    -2.2790    -0.4850 ha         1 31O       0.129500
     49 H19          4.8010    -1.9440    -1.1180 ha         1 31O       0.133000
     50 H20          4.0720     2.2570    -1.7390 ha         1 31O       0.133000
     51 H21          1.6950     1.9530    -1.1230 ha         1 31O       0.129500
@<TRIPOS>BOND
     1     1     2 1   
     2     1    31 1   
     3     1    32 1   
     4     1    33 1   
     5     2     3 1   
     6     3     4 2   
     7     3     5 1   
     8     5     6 1   
     9     5     7 1   
    10     5    34 1   
    11     6    35 1   
    12     6    36 1   
    13     6    37 1   
    14     7     8 1   
    15     7     9 1   
    16     7    38 1   
    17     8    23 2   
    18     9    10 2   
    19     9    14 1   
    20    10    11 1   
    21    11    12 2   
    22    12    13 1   
    23    12    14 1   
    24    13    39 1   
    25    13    40 1   
    26    13    41 1   
    27    14    15 1   
    28    15    16 ar  
    29    15    22 ar  
    30    16    17 ar  
    31    16    42 1   
    32    17    18 ar  
    33    17    43 1   
    34    18    19 1   
    35    18    21 ar  
    36    19    20 1   
    37    20    44 1   
    38    20    45 1   
    39    20    46 1   
    40    21    22 ar  
    41    21    47 1   
    42    22    23 1   
    43    23    24 1   
    44    24    25 ar  
    45    24    30 ar  
    46    25    26 ar  
    47    25    48 1   
    48    26    27 ar  
    49    26    49 1   
    50    27    28 1   
    51    27    29 ar  
    52    29    30 ar  
    53    29    50 1   
    54    30    51 1   
@<TRIPOS>SUBSTRUCTURE
     1 31O         1 TEMP              0 ****  ****    0 ROOT
