@<TRIPOS>MOLECULE
31P
   54    57     1     0     0
SMALL
No Charge or Current Charge


@<TRIPOS>ATOM
      1 CAW         -0.5290     3.6880    -3.2350 c3         1 31P       0.150900
      2 OAU         -1.1010     2.6400    -2.4330 os         1 31P      -0.442100
      3 CAT         -1.6410     2.9790    -1.2180 c          1 31P       0.593100
      4 OAV         -1.7020     4.1230    -0.7850 o          1 31P      -0.474000
      5 CAS         -2.2250     1.7570    -0.4870 c3         1 31P      -0.129700
      6 CBD         -3.7720     1.8680    -0.3490 c3         1 31P      -0.068400
      7 CBE         -4.5090     2.0140    -1.6970 c3         1 31P      -0.093100
      8 CAI         -1.5040     1.5570     0.8800 c3         1 31P       0.101200
      9 NAH         -0.0400     1.4270     0.6790 n2         1 31P      -0.570900
     10 CAJ         -2.0380     0.4050     1.7140 cc         1 31P       0.373800
     11 NAN         -2.6320     0.4950     2.8960 nd         1 31P      -0.334000
     12 NAO         -2.8860    -0.7880     3.3500 nd         1 31P      -0.357000
     13 CAP         -2.4420    -1.6490     2.4440 cc         1 31P       0.404800
     14 CAR         -2.4450    -3.1440     2.5950 c3         1 31P      -0.124400
     15 NAK         -1.9320    -0.9200     1.3980 na         1 31P      -0.270800
     16 CAE         -1.3330    -1.4110     0.2370 ca         1 31P      -0.020200
     17 CAF         -1.9570    -2.4440    -0.4920 ca         1 31P      -0.080000
     18 CAA         -1.3790    -2.9440    -1.6700 ca         1 31P      -0.177000
     19 CAB         -0.1680    -2.4020    -2.1420 ca         1 31P       0.145100
     20 OAL          0.4460    -2.8460    -3.2960 os         1 31P      -0.333100
     21 CAM         -0.1020    -3.9060    -4.0990 c3         1 31P       0.145900
     22 CAC          0.4440    -1.3590    -1.4320 ca         1 31P      -0.106000
     23 CAD         -0.1230    -0.8500    -0.2420 ca         1 31P      -0.144900
     24 CAG          0.5640     0.2950     0.4480 ce         1 31P       0.544500
     25 CAQ          2.0420     0.1830     0.7010 ca         1 31P      -0.144900
     26 CAX          2.8470     1.3390     0.8350 ca         1 31P      -0.067000
     27 CAY          4.2230     1.2260     1.1060 ca         1 31P      -0.112500
     28 CAZ          4.8070    -0.0390     1.2620 ca         1 31P       0.133000
     29 Cl1          6.5260    -0.1790     1.6030 cl         1 31P      -0.198000
     30 CBA          4.0170    -1.1940     1.1550 ca         1 31P      -0.112500
     31 CBB          2.6420    -1.0850     0.8840 ca         1 31P      -0.067000
     32 H1           0.2960     4.1810    -2.7040 h1         1 31P       0.049367
     33 H2          -0.1340     3.2790    -4.1730 h1         1 31P       0.049367
     34 H3          -1.2840     4.4450    -3.4850 h1         1 31P       0.049367
     35 H4          -2.0240     0.8820    -1.1150 hc         1 31P       0.080700
     36 H5          -4.1620     0.9730     0.1520 hc         1 31P       0.061200
     37 H6          -4.0240     2.7220     0.2910 hc         1 31P       0.061200
     38 H7          -5.5940     2.0280    -1.5370 hc         1 31P       0.037700
     39 H8          -4.2310     2.9460    -2.2030 hc         1 31P       0.037700
     40 H9          -4.2740     1.1740    -2.3620 hc         1 31P       0.037700
     41 H10         -1.6940     2.4630     1.4730 h1         1 31P       0.122700
     42 H11         -3.3320    -3.5800     2.1230 hc         1 31P       0.060700
     43 H12         -1.5540    -3.5890     2.1390 hc         1 31P       0.060700
     44 H13         -2.4540    -3.4280     3.6540 hc         1 31P       0.060700
     45 H14         -2.9060    -2.8560    -0.1580 ha         1 31P       0.129000
     46 H15         -1.8880    -3.7420    -2.2030 ha         1 31P       0.127000
     47 H16          0.5440    -4.1010    -4.9640 h1         1 31P       0.046367
     48 H17         -0.1820    -4.8350    -3.5180 h1         1 31P       0.046367
     49 H18         -1.0990    -3.6380    -4.4730 h1         1 31P       0.046367
     50 H19          1.3670    -0.9350    -1.8200 ha         1 31P       0.146000
     51 H20          2.4150     2.3320     0.7210 ha         1 31P       0.130000
     52 H21          4.8340     2.1200     1.1980 ha         1 31P       0.133000
     53 H22          4.4700    -2.1730     1.2890 ha         1 31P       0.133000
     54 H23          2.0460    -1.9940     0.8250 ha         1 31P       0.130000
@<TRIPOS>BOND
     1     1     2 1   
     2     1    32 1   
     3     1    33 1   
     4     1    34 1   
     5     2     3 1   
     6     3     4 2   
     7     3     5 1   
     8     5     6 1   
     9     5     8 1   
    10     5    35 1   
    11     6     7 1   
    12     6    36 1   
    13     6    37 1   
    14     7    38 1   
    15     7    39 1   
    16     7    40 1   
    17     8     9 1   
    18     8    10 1   
    19     8    41 1   
    20     9    24 2   
    21    10    11 2   
    22    10    15 1   
    23    11    12 1   
    24    12    13 2   
    25    13    14 1   
    26    13    15 1   
    27    14    42 1   
    28    14    43 1   
    29    14    44 1   
    30    15    16 1   
    31    16    17 ar  
    32    16    23 ar  
    33    17    18 ar  
    34    17    45 1   
    35    18    19 ar  
    36    18    46 1   
    37    19    20 1   
    38    19    22 ar  
    39    20    21 1   
    40    21    47 1   
    41    21    48 1   
    42    21    49 1   
    43    22    23 ar  
    44    22    50 1   
    45    23    24 1   
    46    24    25 1   
    47    25    26 ar  
    48    25    31 ar  
    49    26    27 ar  
    50    26    51 1   
    51    27    28 ar  
    52    27    52 1   
    53    28    29 1   
    54    28    30 ar  
    55    30    31 ar  
    56    30    53 1   
    57    31    54 1   
@<TRIPOS>SUBSTRUCTURE
     1 31P         1 TEMP              0 ****  ****    0 ROOT
