@<TRIPOS>MOLECULE
31P
   54    57     1     0     0
SMALL
abcg2


@<TRIPOS>ATOM
      1 CAW          0.1930     3.0280    -2.7580 c3         1 31P       0.150900
      2 OAU         -0.6880     2.1400    -2.0680 os         1 31P      -0.442100
      3 CAT         -1.4250     2.6430    -1.0920 c          1 31P       0.593100
      4 OAV         -1.4180     3.8060    -0.7740 o          1 31P      -0.474000
      5 CAS         -2.2610     1.5850    -0.4030 c3         1 31P      -0.129700
      6 CBD         -3.7270     2.0090    -0.3150 c3         1 31P      -0.068400
      7 CBE         -4.3730     2.2070    -1.6790 c3         1 31P      -0.093100
      8 CAI         -1.6620     1.3940     1.0100 c3         1 31P       0.101200
      9 NAH         -0.2150     1.2850     1.0190 n2         1 31P      -0.570900
     10 CAJ         -2.2410     0.2600     1.7790 cc         1 31P       0.373800
     11 NAN         -2.8840     0.3300     2.9030 nd         1 31P      -0.334000
     12 NAO         -3.1150    -0.9390     3.3260 nd         1 31P      -0.357000
     13 CAP         -2.6040    -1.7640     2.4570 cc         1 31P       0.404800
     14 CAR         -2.6050    -3.2410     2.5680 c3         1 31P      -0.124400
     15 NAK         -2.0360    -1.0440     1.4430 na         1 31P      -0.270800
     16 CAE         -1.4020    -1.4910     0.2670 ca         1 31P      -0.020200
     17 CAF         -1.9610    -2.5220    -0.4690 ca         1 31P      -0.080000
     18 CAA         -1.3770    -2.9610    -1.6460 ca         1 31P      -0.177000
     19 CAB         -0.2190    -2.3440    -2.1130 ca         1 31P       0.145100
     20 OAL          0.4170    -2.6740    -3.2450 os         1 31P      -0.333100
     21 CAM         -0.1060    -3.7230    -4.0390 c3         1 31P       0.145900
     22 CAC          0.3360    -1.2990    -1.3770 ca         1 31P      -0.106000
     23 CAD         -0.2360    -0.8640    -0.1900 ca         1 31P      -0.144900
     24 CAG          0.3900     0.2950     0.5000 ce         1 31P       0.544500
     25 CAQ          1.8730     0.3240     0.5590 ca         1 31P      -0.144900
     26 CAX          2.5440     1.5430     0.4910 ca         1 31P      -0.067000
     27 CAY          3.9240     1.6000     0.5850 ca         1 31P      -0.112500
     28 CAZ          4.6360     0.4230     0.7660 ca         1 31P       0.133000
     29 CL1          6.3610     0.4860     0.8910 cl         1 31P      -0.198000
     30 CBA          3.9920    -0.8010     0.8460 ca         1 31P      -0.112500
     31 CBB          2.6110    -0.8450     0.7330 ca         1 31P      -0.067000
     32 H1           0.9260     3.4650    -2.0800 h1         1 31P       0.049367
     33 H2           0.7030     2.4240    -3.5010 h1         1 31P       0.049367
     34 H3          -0.3570     3.8270    -3.2550 h1         1 31P       0.049367
     35 H4          -2.1980     0.6630    -0.9830 hc         1 31P       0.080700
     36 H5          -4.2740     1.2370     0.2320 hc         1 31P       0.061200
     37 H6          -3.8070     2.9220     0.2790 hc         1 31P       0.061200
     38 H7          -5.4330     2.4340    -1.5710 hc         1 31P       0.037700
     39 H8          -3.9210     3.0340    -2.2300 hc         1 31P       0.037700
     40 H9          -4.2870     1.3100    -2.2940 hc         1 31P       0.037700
     41 H10         -1.9120     2.2930     1.5780 h1         1 31P       0.122700
     42 H11         -3.3590    -3.6990     1.9280 hc         1 31P       0.060700
     43 H12         -1.6370    -3.6640     2.3030 hc         1 31P       0.060700
     44 H13         -2.8330    -3.5160     3.5950 hc         1 31P       0.060700
     45 H14         -2.8820    -2.9870    -0.1460 ha         1 31P       0.129000
     46 H15         -1.8510    -3.7660    -2.1890 ha         1 31P       0.127000
     47 H16          0.5620    -3.8260    -4.8900 h1         1 31P       0.046367
     48 H17         -0.1310    -4.6710    -3.4950 h1         1 31P       0.046367
     49 H18         -1.1100    -3.4950    -4.4040 h1         1 31P       0.046367
     50 H19          1.2270    -0.8130    -1.7530 ha         1 31P       0.146000
     51 H20          1.9810     2.4570     0.3530 ha         1 31P       0.130000
     52 H21          4.4370     2.5490     0.5160 ha         1 31P       0.133000
     53 H22          4.5550    -1.7120     0.9960 ha         1 31P       0.133000
     54 H23          2.1130    -1.8030     0.7980 ha         1 31P       0.130000
@<TRIPOS>BOND
     1     1     2 1   
     2     1    32 1   
     3     1    33 1   
     4     1    34 1   
     5     2     3 1   
     6     3     4 2   
     7     3     5 1   
     8     5     6 1   
     9     5     8 1   
    10     5    35 1   
    11     6     7 1   
    12     6    36 1   
    13     6    37 1   
    14     7    38 1   
    15     7    39 1   
    16     7    40 1   
    17     8     9 1   
    18     8    10 1   
    19     8    41 1   
    20     9    24 2   
    21    10    11 2   
    22    10    15 1   
    23    11    12 1   
    24    12    13 2   
    25    13    14 1   
    26    13    15 1   
    27    14    42 1   
    28    14    43 1   
    29    14    44 1   
    30    15    16 1   
    31    16    17 ar  
    32    16    23 ar  
    33    17    18 ar  
    34    17    45 1   
    35    18    19 ar  
    36    18    46 1   
    37    19    20 1   
    38    19    22 ar  
    39    20    21 1   
    40    21    47 1   
    41    21    48 1   
    42    21    49 1   
    43    22    23 ar  
    44    22    50 1   
    45    23    24 1   
    46    24    25 1   
    47    25    26 ar  
    48    25    31 ar  
    49    26    27 ar  
    50    26    51 1   
    51    27    28 ar  
    52    27    52 1   
    53    28    29 1   
    54    28    30 ar  
    55    30    31 ar  
    56    30    53 1   
    57    31    54 1   
@<TRIPOS>SUBSTRUCTURE
     1 31P         1 TEMP              0 ****  ****    0 ROOT
