@<TRIPOS>MOLECULE
31R
   36    38     1     0     0
SMALL
No Charge or Current Charge


@<TRIPOS>ATOM
      1 O11         -4.2860     2.8130    -0.7970 o          1 31R      -0.517000
      2 C6          -3.2910     2.1660    -0.5030 c          1 31R       0.679300
      3 O1          -2.1260     2.7730    -0.1340 os         1 31R      -0.338200
      4 C2          -0.9670     2.0980     0.1470 ca         1 31R       0.191100
      5 C7           0.1910     2.8480     0.3840 ca         1 31R      -0.198000
      6 C8           1.4130     2.2090     0.6080 ca         1 31R       0.203100
      7 O12          2.5200     2.9740     0.8230 oh         1 31R      -0.538100
      8 C5          -3.2930     0.7030    -0.4760 cc         1 31R      -0.363200
      9 C4          -2.1980    -0.0380    -0.0940 cd         1 31R       0.122600
     10 C13         -2.2930    -1.5200    -0.0390 ca         1 31R      -0.065800
     11 C14         -1.6480    -2.2620     0.9770 ca         1 31R      -0.087000
     12 C15         -1.7730    -3.6600     1.0410 ca         1 31R      -0.113500
     13 C16         -2.5590    -4.3410     0.0990 ca         1 31R      -0.103000
     14 C17         -3.2310    -3.6170    -0.8980 ca         1 31R      -0.113500
     15 C18         -3.1080    -2.2180    -0.9600 ca         1 31R      -0.087000
     16 C3          -0.9340     0.6910     0.1570 ca         1 31R      -0.198800
     17 C10          0.3180     0.0540     0.3320 ca         1 31R      -0.023000
     18 C9           1.4900     0.8010     0.5740 ca         1 31R      -0.163300
     19 C19          2.8110     0.0550     0.7790 c3         1 31R      -0.026100
     20 C20          3.6520    -0.0220    -0.5180 c3         1 31R      -0.213400
     21 C21          4.9740    -0.7560    -0.2450 c          1 31R       0.717000
     22 O23          4.9950    -1.9720    -0.3640 o          1 31R      -0.733500
     23 O22          5.9280    -0.0950     0.1340 o          1 31R      -0.733500
     24 H1           0.1410     3.9330     0.3780 ha         1 31R       0.142000
     25 H2           3.2960     2.3760     0.8530 ho         1 31R       0.497000
     26 H3          -4.2480     0.2520    -0.7120 ha         1 31R       0.205000
     27 H4          -1.0760    -1.7540     1.7500 ha         1 31R       0.121000
     28 H5          -1.2690    -4.2150     1.8290 ha         1 31R       0.112000
     29 H6          -2.6570    -5.4230     0.1480 ha         1 31R       0.109000
     30 H7          -3.8480    -4.1410    -1.6250 ha         1 31R       0.112000
     31 H8          -3.6280    -1.6840    -1.7520 ha         1 31R       0.121000
     32 H9           0.4110    -1.0240     0.2500 ha         1 31R       0.128000
     33 H10          3.4020     0.5240     1.5760 hc         1 31R       0.053700
     34 H11          2.6150    -0.9660     1.1310 hc         1 31R       0.053700
     35 H12          3.0420    -0.5830    -1.2370 hc         1 31R       0.024200
     36 H13          3.8470     1.0130    -0.8210 hc         1 31R       0.024200
@<TRIPOS>BOND
     1     1     2 2   
     2     2     3 1   
     3     2     8 1   
     4     3     4 1   
     5     4     5 ar  
     6     4    16 ar  
     7     5     6 ar  
     8     5    24 1   
     9     6     7 1   
    10     6    18 ar  
    11     7    25 1   
    12     8     9 2   
    13     8    26 1   
    14     9    10 1   
    15     9    16 1   
    16    10    11 ar  
    17    10    15 ar  
    18    11    12 ar  
    19    11    27 1   
    20    12    13 ar  
    21    12    28 1   
    22    13    14 ar  
    23    13    29 1   
    24    14    15 ar  
    25    14    30 1   
    26    15    31 1   
    27    16    17 ar  
    28    17    18 ar  
    29    17    32 1   
    30    18    19 1   
    31    19    20 1   
    32    19    33 1   
    33    19    34 1   
    34    20    21 1   
    35    20    35 1   
    36    20    36 1   
    37    21    22 1   
    38    21    23 1   
@<TRIPOS>SUBSTRUCTURE
     1 31R         1 TEMP              0 ****  ****    0 ROOT
