@<TRIPOS>MOLECULE
31R
   36    38     1     0     0
SMALL
bcc


@<TRIPOS>ATOM
      1 O11         -4.2260     2.8530    -0.6590 o          1 31R      -0.592500
      2 C6          -3.2810     2.1400    -0.4200 c          1 31R       0.754800
      3 O1          -2.0910     2.7470    -0.1780 os         1 31R      -0.338200
      4 C2          -0.9520     2.0630     0.0760 ca         1 31R       0.191100
      5 C7           0.1970     2.8090     0.2630 ca         1 31R      -0.216000
      6 C8           1.3980     2.1550     0.5040 ca         1 31R       0.203100
      7 O12          2.4780     2.9310     0.6780 oh         1 31R      -0.499100
      8 C5          -3.3020     0.7000    -0.3500 cc         1 31R      -0.313200
      9 C4          -2.1920    -0.0220    -0.0660 cd         1 31R       0.122600
     10 C13         -2.2760    -1.4920     0.0250 ca         1 31R      -0.065800
     11 C14         -1.8760    -2.1600     1.1830 ca         1 31R      -0.105000
     12 C15         -1.9950    -3.5380     1.2720 ca         1 31R      -0.131500
     13 C16         -2.5040    -4.2660     0.2040 ca         1 31R      -0.121000
     14 C17         -2.9030    -3.6080    -0.9510 ca         1 31R      -0.131500
     15 C18         -2.7950    -2.2280    -1.0380 ca         1 31R      -0.105000
     16 C3          -0.9420     0.6680     0.1390 ca         1 31R      -0.198800
     17 C10          0.2910     0.0440     0.3640 ca         1 31R      -0.041000
     18 C9           1.4630     0.7480     0.5520 ca         1 31R      -0.163300
     19 C19          2.7680     0.0270     0.7480 c3         1 31R      -0.026100
     20 C20          3.5770    -0.0840    -0.5430 c3         1 31R      -0.213400
     21 C21          4.9310    -0.8050    -0.4040 c          1 31R       0.927600
     22 O23          5.5640    -0.9790    -1.4650 o          1 31R      -0.838800
     23 O22          5.2880    -1.1500     0.7390 o          1 31R      -0.838800
     24 H1           0.1620     3.8900     0.2180 ha         1 31R       0.160000
     25 H2           3.2590     2.4040     0.8810 ho         1 31R       0.458000
     26 H3          -4.2590     0.2210    -0.5040 ha         1 31R       0.155000
     27 H4          -1.4900    -1.6010     2.0270 ha         1 31R       0.139000
     28 H5          -1.6900    -4.0430     2.1790 ha         1 31R       0.130000
     29 H6          -2.5910    -5.3430     0.2740 ha         1 31R       0.127000
     30 H7          -3.2990    -4.1680    -1.7880 ha         1 31R       0.130000
     31 H8          -3.1040    -1.7190    -1.9430 ha         1 31R       0.139000
     32 H9           0.3380    -1.0370     0.3840 ha         1 31R       0.146000
     33 H10          3.3700     0.5020     1.5300 hc         1 31R       0.053700
     34 H11          2.5580    -0.9730     1.1300 hc         1 31R       0.053700
     35 H12          2.9780    -0.6040    -1.2980 hc         1 31R       0.024200
     36 H13          3.7620     0.9100    -0.9680 hc         1 31R       0.024200
@<TRIPOS>BOND
     1     1     2 2   
     2     2     3 1   
     3     2     8 1   
     4     3     4 1   
     5     4     5 ar  
     6     4    16 ar  
     7     5     6 ar  
     8     5    24 1   
     9     6     7 1   
    10     6    18 ar  
    11     7    25 1   
    12     8     9 2   
    13     8    26 1   
    14     9    10 1   
    15     9    16 1   
    16    10    11 ar  
    17    10    15 ar  
    18    11    12 ar  
    19    11    27 1   
    20    12    13 ar  
    21    12    28 1   
    22    13    14 ar  
    23    13    29 1   
    24    14    15 ar  
    25    14    30 1   
    26    15    31 1   
    27    16    17 ar  
    28    17    18 ar  
    29    17    32 1   
    30    18    19 1   
    31    19    20 1   
    32    19    33 1   
    33    19    34 1   
    34    20    21 1   
    35    20    35 1   
    36    20    36 1   
    37    21    22 1   
    38    21    23 1   
@<TRIPOS>SUBSTRUCTURE
     1 31R         1 TEMP              0 ****  ****    0 ROOT
