@<TRIPOS>MOLECULE
31S
   44    46     1     0     0
SMALL
No Charge or Current Charge


@<TRIPOS>ATOM
      1 C1           4.6830    -0.5990    -0.2240 ca         1 31S      -0.103500
      2 C2           3.4490     0.0800    -0.2500 ca         1 31S      -0.055300
      3 C3           3.3840     1.4170     0.1900 ca         1 31S      -0.103500
      4 C4           4.5430     2.0690     0.6480 ca         1 31S      -0.107000
      5 C5           5.7700     1.3870     0.6680 ca         1 31S       0.108000
      6 C6           5.8410     0.0530     0.2330 ca         1 31S      -0.107000
      7 Cl7          7.2200     2.2020     1.2410 cl         1 31S      -0.232000
      8 C8           2.1920    -0.6260    -0.7390 c3         1 31S      -0.042100
      9 C9           1.4190    -1.3030     0.4100 c3         1 31S      -0.021200
     10 C10          0.1540    -2.0020    -0.0680 ce         1 31S      -0.150400
     11 C11          0.2140    -3.3120    -0.4720 cf         1 31S      -0.205200
     12 C12         -0.9010    -4.1840    -0.9600 c          1 31S       0.694200
     13 O13         -0.6060    -5.3250    -1.2810 o          1 31S      -0.716000
     14 O14         -2.0420    -3.7530    -1.0120 o          1 31S      -0.716000
     15 C15         -1.0610    -1.1420    -0.0460 ca         1 31S       0.043200
     16 C16         -1.5460    -0.5710    -1.2340 ca         1 31S      -0.095500
     17 C17         -2.6740     0.2670    -1.2110 ca         1 31S      -0.100500
     18 C18         -3.3440     0.5610     0.0040 cp         1 31S      -0.077000
     19 C19         -2.8370    -0.0210     1.1940 ca         1 31S      -0.100500
     20 C20         -1.7090    -0.8600     1.1690 ca         1 31S      -0.095500
     21 C21         -4.5450     1.4570     0.0300 cp         1 31S       0.001000
     22 C22         -4.7930     2.3210     1.1280 ca         1 31S      -0.108000
     23 C23         -5.9180     3.1630     1.1520 ca         1 31S      -0.117000
     24 C24         -6.8230     3.1580     0.0790 ca         1 31S      -0.129000
     25 C25         -6.6000     2.3120    -1.0190 ca         1 31S      -0.117000
     26 C26         -5.4730     1.4720    -1.0430 ca         1 31S      -0.108000
     27 H1           4.7440    -1.6330    -0.5570 ha         1 31S       0.120500
     28 H3           2.4360     1.9510     0.1790 ha         1 31S       0.120500
     29 H4           4.4900     3.1010     0.9860 ha         1 31S       0.120500
     30 H6           6.7920    -0.4740     0.2510 ha         1 31S       0.120500
     31 H11          1.1820    -3.8070    -0.4420 ha         1 31S       0.147000
     32 H16         -1.0430    -0.7760    -2.1760 ha         1 31S       0.113000
     33 H17         -3.0200     0.7050    -2.1440 ha         1 31S       0.096500
     34 H19         -3.3270     0.1680     2.1450 ha         1 31S       0.096500
     35 H20         -1.3370    -1.2940     2.0930 ha         1 31S       0.113000
     36 H22         -4.0980     2.3500     1.9630 ha         1 31S       0.116500
     37 H23         -6.0870     3.8200     2.0030 ha         1 31S       0.101000
     38 H24         -7.6940     3.8090     0.0980 ha         1 31S       0.099000
     39 H25         -7.3010     2.3050    -1.8500 ha         1 31S       0.101000
     40 H26         -5.3270     0.8150    -1.8960 ha         1 31S       0.116500
     41 H8           1.5310     0.0900    -1.2430 hc         1 31S       0.055200
     42 H8A          2.4510    -1.3820    -1.4910 hc         1 31S       0.055200
     43 H9           2.0840    -2.0170     0.9130 hc         1 31S       0.034200
     44 H9A          1.1740    -0.5430     1.1630 hc         1 31S       0.034200
@<TRIPOS>BOND
     1     1     2 ar  
     2     1     6 ar  
     3     1    27 1   
     4     2     3 ar  
     5     2     8 1   
     6     3     4 ar  
     7     3    28 1   
     8     4     5 ar  
     9     4    29 1   
    10     5     6 ar  
    11     5     7 1   
    12     6    30 1   
    13     8     9 1   
    14     8    41 1   
    15     8    42 1   
    16     9    10 1   
    17     9    43 1   
    18     9    44 1   
    19    10    11 2   
    20    10    15 1   
    21    11    12 1   
    22    11    31 1   
    23    12    13 1   
    24    12    14 1   
    25    15    16 ar  
    26    15    20 ar  
    27    16    17 ar  
    28    16    32 1   
    29    17    18 ar  
    30    17    33 1   
    31    18    19 ar  
    32    18    21 1   
    33    19    20 ar  
    34    19    34 1   
    35    20    35 1   
    36    21    22 ar  
    37    21    26 ar  
    38    22    23 ar  
    39    22    36 1   
    40    23    24 ar  
    41    23    37 1   
    42    24    25 ar  
    43    24    38 1   
    44    25    26 ar  
    45    25    39 1   
    46    26    40 1   
@<TRIPOS>SUBSTRUCTURE
     1 31S         1 TEMP              0 ****  ****    0 ROOT
