@<TRIPOS>MOLECULE
31S
   44    46     1     0     0
SMALL
abcg2


@<TRIPOS>ATOM
      1 C1           4.4250    -0.2770    -0.4220 ca         1 31S      -0.103500
      2 C2           3.1740     0.2570    -0.1240 ca         1 31S      -0.055300
      3 C3           3.1190     1.3940     0.6780 ca         1 31S      -0.103500
      4 C4           4.2720     1.9900     1.1680 ca         1 31S      -0.107000
      5 C5           5.5010     1.4340     0.8530 ca         1 31S       0.108000
      6 C6           5.5900     0.3010     0.0590 ca         1 31S      -0.107000
      7 CL7          6.9520     2.1700     1.4590 cl         1 31S      -0.232000
      8 C8           1.9160    -0.4040    -0.6090 c3         1 31S      -0.042100
      9 C9           1.4590    -1.5150     0.3480 c3         1 31S      -0.021200
     10 C10          0.1780    -2.1680    -0.1030 ce         1 31S      -0.150400
     11 C11          0.1750    -3.4290    -0.5450 cf         1 31S      -0.205200
     12 C12         -1.0080    -4.2430    -1.0190 c          1 31S       0.694200
     13 O13         -0.7170    -5.1980    -1.7720 o          1 31S      -0.716000
     14 O14         -2.1450    -3.9270    -0.6250 o          1 31S      -0.716000
     15 C15         -1.0120    -1.2870    -0.0840 ca         1 31S       0.043200
     16 C16         -1.6960    -0.9740    -1.2570 ca         1 31S      -0.095500
     17 C17         -2.7650    -0.0950    -1.2480 ca         1 31S      -0.100500
     18 C18         -3.1960     0.5030    -0.0610 cp         1 31S      -0.077000
     19 C19         -2.5060     0.1950     1.1110 ca         1 31S      -0.100500
     20 C20         -1.4250    -0.6740     1.0960 ca         1 31S      -0.095500
     21 C21         -4.3370     1.4400    -0.0500 cp         1 31S       0.001000
     22 C22         -4.3410     2.5520     0.7950 ca         1 31S      -0.108000
     23 C23         -5.4140     3.4320     0.8080 ca         1 31S      -0.117000
     24 C24         -6.5050     3.2190    -0.0250 ca         1 31S      -0.129000
     25 C25         -6.5120     2.1180    -0.8710 ca         1 31S      -0.117000
     26 C26         -5.4400     1.2380    -0.8820 ca         1 31S      -0.108000
     27 H1           4.4980    -1.1610    -1.0450 ha         1 31S       0.120500
     28 H3           2.1580     1.8310     0.9220 ha         1 31S       0.120500
     29 H4           4.2090     2.8760     1.7860 ha         1 31S       0.120500
     30 H6           6.5540    -0.1260    -0.1820 ha         1 31S       0.120500
     31 H11          1.1330    -3.9430    -0.5780 ha         1 31S       0.147000
     32 H16         -1.3710    -1.4060    -2.1950 ha         1 31S       0.113000
     33 H17         -3.2580     0.1440    -2.1830 ha         1 31S       0.096500
     34 H19         -2.8220     0.6240     2.0540 ha         1 31S       0.096500
     35 H20         -0.9130    -0.8910     2.0260 ha         1 31S       0.113000
     36 H22         -3.4900     2.7460     1.4360 ha         1 31S       0.116500
     37 H23         -5.3930     4.2910     1.4660 ha         1 31S       0.101000
     38 H24         -7.3420     3.9050    -0.0140 ha         1 31S       0.099000
     39 H25         -7.3600     1.9370    -1.5200 ha         1 31S       0.101000
     40 H26         -5.4710     0.3720    -1.5330 ha         1 31S       0.116500
     41 H8           1.1250     0.3420    -0.7120 hc         1 31S       0.055200
     42 H8A          2.0760    -0.8350    -1.6000 hc         1 31S       0.055200
     43 H9           2.2470    -2.2670     0.4330 hc         1 31S       0.034200
     44 H9A          1.3260    -1.0850     1.3470 hc         1 31S       0.034200
@<TRIPOS>BOND
     1     1     2 ar  
     2     1     6 ar  
     3     1    27 1   
     4     2     3 ar  
     5     2     8 1   
     6     3     4 ar  
     7     3    28 1   
     8     4     5 ar  
     9     4    29 1   
    10     5     6 ar  
    11     5     7 1   
    12     6    30 1   
    13     8     9 1   
    14     8    41 1   
    15     8    42 1   
    16     9    10 1   
    17     9    43 1   
    18     9    44 1   
    19    10    11 2   
    20    10    15 1   
    21    11    12 1   
    22    11    31 1   
    23    12    13 1   
    24    12    14 1   
    25    15    16 ar  
    26    15    20 ar  
    27    16    17 ar  
    28    16    32 1   
    29    17    18 ar  
    30    17    33 1   
    31    18    19 ar  
    32    18    21 1   
    33    19    20 ar  
    34    19    34 1   
    35    20    35 1   
    36    21    22 ar  
    37    21    26 ar  
    38    22    23 ar  
    39    22    36 1   
    40    23    24 ar  
    41    23    37 1   
    42    24    25 ar  
    43    24    38 1   
    44    25    26 ar  
    45    25    39 1   
    46    26    40 1   
@<TRIPOS>SUBSTRUCTURE
     1 31S         1 TEMP              0 ****  ****    0 ROOT
