@<TRIPOS>MOLECULE
31T
   44    47     1     0     0
SMALL
abcg2


@<TRIPOS>ATOM
      1 C8          -4.5450    -0.2910    -1.2660 cc         1 31T      -0.329600
      2 C3          -5.8330     0.0770    -1.0850 cd         1 31T       0.058900
      3 O1          -6.7390     0.0840    -2.0530 oh         1 31T      -0.508100
      4 C4          -6.2840     0.4950     0.2380 c          1 31T       0.487200
      5 O9          -7.4450     0.8370     0.4540 o          1 31T      -0.571000
      6 N5          -5.3110     0.4730     1.1760 ns         1 31T      -0.201900
      7 N6          -4.0320     0.1130     1.0280 nd         1 31T      -0.454300
      8 C7          -3.6560    -0.2600    -0.1500 cc         1 31T       0.402600
      9 C10         -2.2300    -0.6760    -0.3540 c3         1 31T      -0.099700
     10 C11         -1.3480    -0.5970     0.8890 c3         1 31T      -0.008100
     11 C12          0.0540    -1.0520     0.5950 ca         1 31T      -0.144300
     12 C13          0.3690    -2.4230     0.5070 ca         1 31T       0.195100
     13 C14          1.6490    -2.8430     0.1830 ca         1 31T      -0.245000
     14 O18         -0.6270    -3.2900     0.7360 oh         1 31T      -0.524100
     15 C17          1.0650    -0.1440     0.3730 ca         1 31T      -0.015000
     16 C16          2.3770    -0.5300     0.0680 ca         1 31T      -0.185800
     17 C15          2.6350    -1.8960    -0.0410 ca         1 31T       0.216100
     18 O22          3.8580    -2.3570    -0.3810 os         1 31T      -0.338200
     19 C21          4.9050    -1.5380    -0.6700 c          1 31T       0.674300
     20 O23          5.9430    -2.0630    -0.9910 o          1 31T      -0.482000
     21 C20          4.6710    -0.1210    -0.5440 cc         1 31T      -0.334200
     22 C19          3.4700     0.3800    -0.1740 cd         1 31T       0.107600
     23 C24          3.2940     1.8370    -0.0230 ca         1 31T      -0.076800
     24 C25          3.5910     2.6910    -1.0830 ca         1 31T      -0.090000
     25 C26          3.4570     4.0640    -0.9350 ca         1 31T      -0.111500
     26 C27          3.0360     4.5970     0.2750 ca         1 31T      -0.097000
     27 C28          2.7460     3.7520     1.3380 ca         1 31T      -0.111500
     28 C29          2.8700     2.3790     1.1900 ca         1 31T      -0.090000
     29 H1          -4.1840    -0.6060    -2.2370 ha         1 31T       0.212000
     30 H2          -7.5830     0.3860    -1.6800 ho         1 31T       0.499000
     31 H3          -5.5590     0.7540     2.1140 hn         1 31T       0.356500
     32 H4          -2.2310    -1.6960    -0.7500 hc         1 31T       0.062200
     33 H5          -1.8000    -0.0570    -1.1470 hc         1 31T       0.062200
     34 H6          -1.3190     0.4330     1.2500 hc         1 31T       0.063200
     35 H7          -1.7840    -1.1900     1.6950 hc         1 31T       0.063200
     36 H8           1.8920    -3.8950     0.0920 ha         1 31T       0.141000
     37 H9          -0.3170    -4.1990     0.6740 ho         1 31T       0.474000
     38 H10          0.8310     0.9120     0.4310 ha         1 31T       0.129000
     39 H11          5.5180     0.5250    -0.7230 ha         1 31T       0.217000
     40 H12          3.9130     2.2800    -2.0310 ha         1 31T       0.121000
     41 H13          3.6820     4.7160    -1.7680 ha         1 31T       0.118000
     42 H14          2.9330     5.6680     0.3890 ha         1 31T       0.117000
     43 H15          2.4250     4.1610     2.2860 ha         1 31T       0.118000
     44 H16          2.6560     1.7300     2.0300 ha         1 31T       0.121000
@<TRIPOS>BOND
     1     1     2 2   
     2     1     8 1   
     3     1    29 1   
     4     2     3 1   
     5     2     4 1   
     6     3    30 1   
     7     4     5 2   
     8     4     6 1   
     9     6     7 1   
    10     6    31 1   
    11     7     8 2   
    12     8     9 1   
    13     9    10 1   
    14     9    32 1   
    15     9    33 1   
    16    10    11 1   
    17    10    34 1   
    18    10    35 1   
    19    11    12 ar  
    20    11    15 ar  
    21    12    13 ar  
    22    12    14 1   
    23    13    17 ar  
    24    13    36 1   
    25    14    37 1   
    26    15    16 ar  
    27    15    38 1   
    28    16    17 ar  
    29    16    22 1   
    30    17    18 1   
    31    18    19 1   
    32    19    20 2   
    33    19    21 1   
    34    21    22 2   
    35    21    39 1   
    36    22    23 1   
    37    23    24 ar  
    38    23    28 ar  
    39    24    25 ar  
    40    24    40 1   
    41    25    26 ar  
    42    25    41 1   
    43    26    27 ar  
    44    26    42 1   
    45    27    28 ar  
    46    27    43 1   
    47    28    44 1   
@<TRIPOS>SUBSTRUCTURE
     1 31T         1 TEMP              0 ****  ****    0 ROOT
