@<TRIPOS>MOLECULE
31T
   44    47     1     0     0
SMALL
No Charge or Current Charge


@<TRIPOS>ATOM
      1 C8          -4.6390    -0.9810    -0.2460 cc         1 31T      -0.329600
      2 C3          -5.9390    -0.5920    -0.0160 cd         1 31T       0.058900
      3 O1          -6.9350    -1.4740     0.2510 oh         1 31T      -0.508100
      4 C4          -6.3300     0.8560    -0.0490 c          1 31T       0.487200
      5 O9          -7.4650     1.2740     0.1460 o          1 31T      -0.571000
      6 N5          -5.2540     1.6850    -0.3260 ns         1 31T      -0.201900
      7 N6          -3.9370     1.3270    -0.5620 nd         1 31T      -0.454300
      8 C7          -3.6490     0.0250    -0.5220 cc         1 31T       0.402600
      9 C10         -2.2320    -0.4200    -0.7650 c3         1 31T      -0.099700
     10 C11         -1.4420    -0.6570     0.5400 c3         1 31T      -0.008100
     11 C12         -0.0130    -1.1270     0.2690 ca         1 31T      -0.144300
     12 C13          0.2870    -2.4880     0.0610 ca         1 31T       0.195100
     13 C14          1.5980    -2.8780    -0.2310 ca         1 31T      -0.245000
     14 O18         -0.6940    -3.4350     0.1080 oh         1 31T      -0.524100
     15 C17          1.0230    -0.1730     0.2030 ca         1 31T      -0.015000
     16 C16          2.3620    -0.5620    -0.0380 ca         1 31T      -0.185800
     17 C15          2.6200    -1.9230    -0.2930 ca         1 31T       0.216100
     18 O22          3.8740    -2.3470    -0.6470 os         1 31T      -0.338200
     19 C21          4.9290    -1.5080    -0.8640 c          1 31T       0.674300
     20 O23          6.0160    -1.9290    -1.2310 o          1 31T      -0.482000
     21 C20          4.6950    -0.0910    -0.5820 cc         1 31T      -0.334200
     22 C19          3.4930     0.3890    -0.1140 cd         1 31T       0.107600
     23 C24          3.3470     1.8330     0.1990 ca         1 31T      -0.076800
     24 C25          4.0420     2.8030    -0.5610 ca         1 31T      -0.090000
     25 C26          3.9360     4.1710    -0.2540 ca         1 31T      -0.111500
     26 C27          3.1510     4.5920     0.8310 ca         1 31T      -0.097000
     27 C28          2.4820     3.6400     1.6150 ca         1 31T      -0.111500
     28 C29          2.5850     2.2730     1.3060 ca         1 31T      -0.090000
     29 H1          -4.3470    -2.0250    -0.2230 ha         1 31T       0.212000
     30 H2          -7.7570    -0.9420     0.3740 ho         1 31T       0.499000
     31 H3          -5.4880     2.6750    -0.3540 hn         1 31T       0.356500
     32 H4          -2.2350    -1.3430    -1.3570 hc         1 31T       0.062200
     33 H5          -1.7050     0.3270    -1.3700 hc         1 31T       0.062200
     34 H6          -1.4320     0.2730     1.1220 hc         1 31T       0.063200
     35 H7          -1.9760    -1.3870     1.1620 hc         1 31T       0.063200
     36 H8           1.8360    -3.9200    -0.4260 ha         1 31T       0.141000
     37 H9          -0.2870    -4.3100    -0.0620 ho         1 31T       0.474000
     38 H10          0.7560     0.8740     0.3050 ha         1 31T       0.129000
     39 H11          5.5660     0.5380    -0.7030 ha         1 31T       0.217000
     40 H12          4.6440     2.5060    -1.4160 ha         1 31T       0.121000
     41 H13          4.4630     4.9060    -0.8590 ha         1 31T       0.118000
     42 H14          3.0720     5.6500     1.0700 ha         1 31T       0.117000
     43 H15          1.8910     3.9600     2.4710 ha         1 31T       0.118000
     44 H16          2.1000     1.5520     1.9610 ha         1 31T       0.121000
@<TRIPOS>BOND
     1     1     2 2   
     2     1     8 1   
     3     1    29 1   
     4     2     3 1   
     5     2     4 1   
     6     3    30 1   
     7     4     5 2   
     8     4     6 1   
     9     6     7 1   
    10     6    31 1   
    11     7     8 2   
    12     8     9 1   
    13     9    10 1   
    14     9    32 1   
    15     9    33 1   
    16    10    11 1   
    17    10    34 1   
    18    10    35 1   
    19    11    12 ar  
    20    11    15 ar  
    21    12    13 ar  
    22    12    14 1   
    23    13    17 ar  
    24    13    36 1   
    25    14    37 1   
    26    15    16 ar  
    27    15    38 1   
    28    16    17 ar  
    29    16    22 1   
    30    17    18 1   
    31    18    19 1   
    32    19    20 2   
    33    19    21 1   
    34    21    22 2   
    35    21    39 1   
    36    22    23 1   
    37    23    24 ar  
    38    23    28 ar  
    39    24    25 ar  
    40    24    40 1   
    41    25    26 ar  
    42    25    41 1   
    43    26    27 ar  
    44    26    42 1   
    45    27    28 ar  
    46    27    43 1   
    47    28    44 1   
@<TRIPOS>SUBSTRUCTURE
     1 31T         1 TEMP              0 ****  ****    0 ROOT
