@<TRIPOS>MOLECULE
31U
   55    56     1     0     0
SMALL
No Charge or Current Charge


@<TRIPOS>ATOM
      1 N5          20.2270   -16.1370    21.6430 n8         1 31U      -0.977200
      2 C4          20.2180   -15.0660    22.6970 c3         1 31U       0.092500
      3 C33         20.4520   -15.7410    24.0800 c3         1 31U      -0.109400
      4 C17         20.6860   -14.7720    25.2780 c3         1 31U      -0.060700
      5 C12         21.9100   -13.8460    25.0750 c3         1 31U      -0.088600
      6 C49         20.8110   -15.5590    26.6020 c3         1 31U      -0.088600
      7 C14         18.9450   -14.1180    22.6620 c          1 31U       0.621100
      8 O32         18.0100   -14.2590    23.4460 o          1 31U      -0.632100
      9 N1          18.8800   -13.1090    21.6700 n          1 31U      -0.395800
     10 C1          17.6750   -12.2500    21.4700 c5         1 31U       0.031700
     11 C7          16.3310   -13.0120    21.2270 c          1 31U       0.596100
     12 O22         16.1790   -14.1580    20.8210 o          1 31U      -0.582100
     13 C2          18.0510   -11.5010    20.1560 c5         1 31U      -0.084400
     14 C3          19.5810   -11.3330    20.3040 c5         1 31U      -0.094400
     15 C32         20.0120   -12.7380    20.7920 c5         1 31U       0.109000
     16 N23         15.2760   -12.1810    21.5340 ns         1 31U      -0.500900
     17 C24         13.8720   -12.5630    21.4180 c3         1 31U       0.149300
     18 C25         12.9600   -11.4030    21.7830 ca         1 31U      -0.098300
     19 C30         12.5140   -11.2370    23.1060 ca         1 31U      -0.109000
     20 C29         11.6730   -10.1620    23.4440 ca         1 31U      -0.078500
     21 C28         11.2730    -9.2190    22.4690 ca         1 31U      -0.146900
     22 C21         10.3490    -8.0940    22.8380 ce         1 31U       0.662800
     23 N46          9.6570    -8.0780    23.9010 n2         1 31U      -0.827100
     24 N47         10.3330    -6.9970    22.0510 nv         1 31U      -1.088200
     25 C27         11.7120    -9.4060    21.1360 ca         1 31U      -0.078500
     26 C26         12.5520   -10.4830    20.8010 ca         1 31U      -0.109000
     27 HN5         21.0380   -16.7510    21.7870 hn         1 31U       0.405000
     28 HN5A        19.4240   -16.7620    21.7880 hn         1 31U       0.405000
     29 H4          21.0930   -14.4350    22.5030 h1         1 31U       0.067700
     30 H33         19.5910   -16.3820    24.3080 hc         1 31U       0.052200
     31 H33A        21.3210   -16.4080    24.0080 hc         1 31U       0.052200
     32 H17         19.8060   -14.1260    25.3800 hc         1 31U       0.046700
     33 H12         21.7600   -13.1680    24.2280 hc         1 31U       0.034033
     34 H12A        22.0770   -13.2260    25.9640 hc         1 31U       0.034033
     35 H12B        22.8190   -14.4330    24.8930 hc         1 31U       0.034033
     36 H49         21.6840   -16.2220    26.5830 hc         1 31U       0.034033
     37 H49A        20.9180   -14.8740    27.4520 hc         1 31U       0.034033
     38 H49B        19.9180   -16.1720    26.7750 hc         1 31U       0.034033
     39 H1          17.5600   -11.5580    22.3140 h1         1 31U       0.061700
     40 H2          17.8120   -12.0990    19.2670 hc         1 31U       0.063700
     41 H2A         17.5270   -10.5430    20.0540 hc         1 31U       0.063700
     42 H3          20.0720   -11.0470    19.3660 hc         1 31U       0.056200
     43 H3A         19.8240   -10.5660    21.0490 hc         1 31U       0.056200
     44 H32         20.9710   -12.6900    21.3230 h1         1 31U       0.057200
     45 H32A        20.1040   -13.4480    19.9590 h1         1 31U       0.057200
     46 HN23        15.4940   -11.2470    21.8590 hn         1 31U       0.313500
     47 H24         13.6720   -12.8840    20.3860 h1         1 31U       0.064200
     48 H24A        13.6770   -13.4160    22.0820 h1         1 31U       0.064200
     49 H30         12.8170   -11.9430    23.8760 ha         1 31U       0.128500
     50 H29         11.3400   -10.0600    24.4750 ha         1 31U       0.125000
     51 HN46         8.9750    -7.3160    23.8230 hn         1 31U       0.365400
     52 HN47        11.1130    -6.9270    21.4070 hn         1 31U       0.463500
     53 HN4A        10.0730    -6.1280    22.5030 hn         1 31U       0.463500
     54 H27         11.3980    -8.7270    20.3470 ha         1 31U       0.125000
     55 H26         12.8830   -10.6030    19.7710 ha         1 31U       0.128500
@<TRIPOS>BOND
     1     1     2 1   
     2     1    27 1   
     3     1    28 1   
     4     2     3 1   
     5     2     7 1   
     6     2    29 1   
     7     3     4 1   
     8     3    30 1   
     9     3    31 1   
    10     4     5 1   
    11     4     6 1   
    12     4    32 1   
    13     5    33 1   
    14     5    34 1   
    15     5    35 1   
    16     6    36 1   
    17     6    37 1   
    18     6    38 1   
    19     7     8 2   
    20     7     9 1   
    21     9    10 1   
    22     9    15 1   
    23    10    11 1   
    24    10    13 1   
    25    10    39 1   
    26    11    12 2   
    27    11    16 1   
    28    13    14 1   
    29    13    40 1   
    30    13    41 1   
    31    14    15 1   
    32    14    42 1   
    33    14    43 1   
    34    15    44 1   
    35    15    45 1   
    36    16    17 1   
    37    16    46 1   
    38    17    18 1   
    39    17    47 1   
    40    17    48 1   
    41    18    19 ar  
    42    18    26 ar  
    43    19    20 ar  
    44    19    49 1   
    45    20    21 ar  
    46    20    50 1   
    47    21    22 1   
    48    21    25 ar  
    49    22    23 2   
    50    22    24 1   
    51    23    51 1   
    52    24    52 1   
    53    24    53 1   
    54    25    26 ar  
    55    25    54 1   
    56    26    55 1   
@<TRIPOS>SUBSTRUCTURE
     1 31U         1 TEMP              0 ****  ****    0 ROOT
