@<TRIPOS>MOLECULE
31U
   55    56     1     0     0
SMALL
abcg2


@<TRIPOS>ATOM
      1 N5          17.0810   -15.4600    23.5750 n8         1 31U      -0.977200
      2 C4          18.3460   -14.7200    23.4460 c3         1 31U       0.092500
      3 C33         18.9980   -14.3660    24.7930 c3         1 31U      -0.109400
      4 C17         20.3960   -13.7370    24.7000 c3         1 31U      -0.060700
      5 C12         21.4660   -14.7830    24.3740 c3         1 31U      -0.088600
      6 C49         20.7430   -13.0080    26.0000 c3         1 31U      -0.088600
      7 C14         18.0150   -13.4360    22.6880 c          1 31U       0.621100
      8 O32         17.1350   -12.6840    23.1250 o          1 31U      -0.632100
      9 N1          18.6790   -13.1420    21.5590 n          1 31U      -0.395800
     10 C1          18.3560   -11.9150    20.8280 c5         1 31U       0.031700
     11 C7          16.9000   -11.8990    20.3650 c          1 31U       0.596100
     12 O22         16.3520   -12.9090    19.9290 o          1 31U      -0.582100
     13 C2          19.3200   -11.9350    19.6260 c5         1 31U      -0.084400
     14 C3          20.4870   -12.7970    20.1110 c5         1 31U      -0.094400
     15 C32         19.7990   -13.8730    20.9450 c5         1 31U       0.109000
     16 N23         16.3100   -10.6910    20.3990 ns         1 31U      -0.500900
     17 C24         14.9550   -10.4570    19.9430 c3         1 31U       0.149300
     18 C25         13.9030   -10.5230    21.0310 ca         1 31U      -0.098300
     19 C30         14.1270   -11.1760    22.2420 ca         1 31U      -0.109000
     20 C29         13.1270   -11.2400    23.2030 ca         1 31U      -0.078500
     21 C28         11.8810   -10.6520    22.9840 ca         1 31U      -0.146900
     22 C21         10.8280   -10.7300    24.0380 ce         1 31U       0.662800
     23 N46         10.8520   -11.6970    24.8880 n2         1 31U      -0.827100
     24 N47          9.8630    -9.7590    23.9850 nv         1 31U      -1.088200
     25 C27         11.6580   -10.0000    21.7680 ca         1 31U      -0.078500
     26 C26         12.6570    -9.9380    20.8070 ca         1 31U      -0.109000
     27 HN5         17.2420   -16.2910    24.1340 hn         1 31U       0.405000
     28 HN5A        16.4220   -14.8850    24.0920 hn         1 31U       0.405000
     29 H4          19.0200   -15.3440    22.8610 h1         1 31U       0.067700
     30 H33         18.3190   -13.6850    25.3140 hc         1 31U       0.052200
     31 H33A        19.0550   -15.2810    25.3910 hc         1 31U       0.052200
     32 H17         20.3870   -12.9920    23.8970 hc         1 31U       0.046700
     33 H12         21.2290   -15.3530    23.4740 hc         1 31U       0.034033
     34 H12A        22.4390   -14.3110    24.2230 hc         1 31U       0.034033
     35 H12B        21.5590   -15.4940    25.2000 hc         1 31U       0.034033
     36 H49         20.7340   -13.7030    26.8440 hc         1 31U       0.034033
     37 H49A        21.7380   -12.5600    25.9450 hc         1 31U       0.034033
     38 H49B        20.0230   -12.2140    26.2080 hc         1 31U       0.034033
     39 H1          18.5480   -11.0530    21.4710 h1         1 31U       0.061700
     40 H2          18.8320   -12.4140    18.7750 hc         1 31U       0.063700
     41 H2A         19.6120   -10.9280    19.3340 hc         1 31U       0.063700
     42 H3          21.0700   -13.2190    19.2940 hc         1 31U       0.056200
     43 H3A         21.1540   -12.2110    20.7460 hc         1 31U       0.056200
     44 H32         20.4560   -14.2920    21.7010 h1         1 31U       0.057200
     45 H32A        19.4230   -14.6840    20.3160 h1         1 31U       0.057200
     46 HN23        16.7980    -9.9300    20.8450 hn         1 31U       0.313500
     47 H24         14.9180    -9.4800    19.4600 h1         1 31U       0.064200
     48 H24A        14.7330   -11.2050    19.1810 h1         1 31U       0.064200
     49 H30         15.0880   -11.6300    22.4420 ha         1 31U       0.128500
     50 H29         13.3120   -11.7430    24.1420 ha         1 31U       0.125000
     51 HN46        10.0930   -11.6010    25.5630 hn         1 31U       0.365400
     52 HN47        10.0780    -8.8800    23.5420 hn         1 31U       0.463500
     53 HN4A         9.2200    -9.7000    24.7590 hn         1 31U       0.463500
     54 H27         10.6980    -9.5490    21.5570 ha         1 31U       0.125000
     55 H26         12.4650    -9.4280    19.8700 ha         1 31U       0.128500
@<TRIPOS>BOND
     1     1     2 1   
     2     1    27 1   
     3     1    28 1   
     4     2     3 1   
     5     2     7 1   
     6     2    29 1   
     7     3     4 1   
     8     3    30 1   
     9     3    31 1   
    10     4     5 1   
    11     4     6 1   
    12     4    32 1   
    13     5    33 1   
    14     5    34 1   
    15     5    35 1   
    16     6    36 1   
    17     6    37 1   
    18     6    38 1   
    19     7     8 2   
    20     7     9 1   
    21     9    10 1   
    22     9    15 1   
    23    10    11 1   
    24    10    13 1   
    25    10    39 1   
    26    11    12 2   
    27    11    16 1   
    28    13    14 1   
    29    13    40 1   
    30    13    41 1   
    31    14    15 1   
    32    14    42 1   
    33    14    43 1   
    34    15    44 1   
    35    15    45 1   
    36    16    17 1   
    37    16    46 1   
    38    17    18 1   
    39    17    47 1   
    40    17    48 1   
    41    18    19 ar  
    42    18    26 ar  
    43    19    20 ar  
    44    19    49 1   
    45    20    21 ar  
    46    20    50 1   
    47    21    22 1   
    48    21    25 ar  
    49    22    23 2   
    50    22    24 1   
    51    23    51 1   
    52    24    52 1   
    53    24    53 1   
    54    25    26 ar  
    55    25    54 1   
    56    26    55 1   
@<TRIPOS>SUBSTRUCTURE
     1 31U         1 TEMP              0 ****  ****    0 ROOT
