@<TRIPOS>MOLECULE
31V
   63    68     1     0     0
SMALL
No Charge or Current Charge


@<TRIPOS>ATOM
      1 C2           5.0910     0.6290    -1.1710 ca         1 31V      -0.075000
      2 C3           3.7540     0.7770    -0.7680 ca         1 31V      -0.136000
      3 N4          -6.0690    -0.3590    -0.2270 na         1 31V       0.185000
      4 C5           4.4050     0.3850     1.5360 ca         1 31V      -0.168000
      5 N6           7.4250     0.2240    -0.6630 na         1 31V      -0.067300
      6 C7           0.9040     1.0800     0.2100 cc         1 31V      -0.172000
      7 C9          -2.3390     0.1300     0.3680 c          1 31V       0.595100
      8 C10         -4.6970    -0.5770    -0.1200 cc         1 31V       0.004600
      9 C11         -5.8810    -2.3500    -0.7890 cd         1 31V       0.306300
     10 C12         -4.5770    -1.8850    -0.4920 cd         1 31V      -0.224000
     11 C13         -6.1940    -3.7300    -1.2380 cx         1 31V      -0.166000
     12 C15         -5.2720    -4.4860    -2.1710 cx         1 31V      -0.119400
     13 C18         -7.1820     2.6040     1.7260 ca         1 31V      -0.101500
     14 C20         -8.0860     2.7500    -0.5290 ca         1 31V      -0.101500
     15 C21         -7.4630     1.5330    -0.8580 ca         1 31V      -0.109000
     16 C22          8.5140     0.8390    -0.0890 cc         1 31V       0.423400
     17 O           -1.8020    -0.9480     0.1490 o          1 31V      -0.529100
     18 N3          -3.7050     0.3310     0.2510 ns         1 31V      -0.401100
     19 C14         -6.6120    -3.9970    -2.6680 cx         1 31V      -0.119400
     20 N5          -6.8220    -1.4390    -0.6290 nc         1 31V      -0.501800
     21 C16         -6.6930     0.8460     0.1030 ca         1 31V       0.005800
     22 C19         -7.9440     3.2860     0.7620 ca         1 31V      -0.105000
     23 C17         -6.5590     1.3870     1.3980 ca         1 31V      -0.109000
     24 N           -0.1440     1.1200     1.0940 na         1 31V       0.129800
     25 N1           0.2670     0.9000     2.3730 nc         1 31V      -0.186800
     26 N2           1.5590     0.7140     2.3210 nd         1 31V      -0.346000
     27 C6           1.9820     0.8160     1.0090 cd         1 31V       0.256500
     28 C4           3.3940     0.6580     0.5890 ca         1 31V      -0.058500
     29 C            5.7540     0.2340     1.1400 ca         1 31V       0.147100
     30 O1           6.7500    -0.0550     2.0580 os         1 31V      -0.331100
     31 C26          6.4910    -0.2160     3.4650 c3         1 31V       0.145900
     32 C1           6.1010     0.3600    -0.2270 ca         1 31V      -0.042200
     33 C24          7.8100    -0.4570    -1.7910 cc         1 31V      -0.224000
     34 C23          9.1660    -0.2470    -1.8480 cd         1 31V       0.245300
     35 C25         10.1240    -0.7700    -2.8800 c3         1 31V      -0.105400
     36 N7           9.6000     0.5550    -0.8030 nd         1 31V      -0.683000
     37 H1           5.3400     0.7340    -2.2250 ha         1 31V       0.130000
     38 H2           3.0020     0.9870    -1.5240 ha         1 31V       0.116000
     39 H3           4.1280     0.2890     2.5810 ha         1 31V       0.146000
     40 H4           0.8020     1.2310    -0.8550 h4         1 31V       0.171000
     41 H5          -3.6690    -2.4720    -0.5570 ha         1 31V       0.167000
     42 H6          -6.7000    -4.3110    -0.4700 hc         1 31V       0.094700
     43 H7          -4.3840    -3.9810    -2.5440 hc         1 31V       0.074450
     44 H8          -5.1510    -5.5540    -2.0080 hc         1 31V       0.074450
     45 H10         -8.6770     3.2770    -1.2750 ha         1 31V       0.121500
     46 H11         -7.5750     1.1230    -1.8590 ha         1 31V       0.134000
     47 H12          8.4540     1.4640     0.7940 h5         1 31V       0.057100
     48 H13         -4.0030     1.2770     0.4620 hn         1 31V       0.331500
     49 H14         -7.3910    -4.7360    -2.8390 hc         1 31V       0.074450
     50 H15         -6.6190    -3.1600    -3.3620 hc         1 31V       0.074450
     51 H16         -8.4260     4.2280     1.0160 ha         1 31V       0.121000
     52 H17         -5.9780     0.8600     2.1530 ha         1 31V       0.134000
     53 H20          6.0680     0.7020     3.8920 h1         1 31V       0.047700
     54 H21          5.7920    -1.0440     3.6410 h1         1 31V       0.047700
     55 H22          7.4230    -0.4410     3.9990 h1         1 31V       0.047700
     56 H23          7.1380    -1.0160    -2.4290 h4         1 31V       0.156000
     57 H24         10.6100     0.0530    -3.4160 hc         1 31V       0.040700
     58 H25         10.9050    -1.3820    -2.4150 hc         1 31V       0.040700
     59 H26          9.6060    -1.3920    -3.6190 hc         1 31V       0.040700
     60 C8          -1.5590     1.3790     0.7910 c3         1 31V      -0.012400
     61 H9          -7.0760     3.0170     2.7270 ha         1 31V       0.121500
     62 H18         -1.6250     2.1120    -0.0200 h1         1 31V       0.091700
     63 H19         -2.0440     1.8020     1.6780 h1         1 31V       0.091700
@<TRIPOS>BOND
     1     1     2 ar  
     2     1    32 ar  
     3     1    37 1   
     4     2    28 ar  
     5     2    38 1   
     6     3     8 1   
     7     3    20 1   
     8     3    21 1   
     9     4    28 ar  
    10     4    29 ar  
    11     4    39 1   
    12     5    16 1   
    13     5    32 1   
    14     5    33 1   
    15     6    24 1   
    16     6    27 2   
    17     6    40 1   
    18     7    17 2   
    19     7    18 1   
    20     7    60 1   
    21     8    10 2   
    22     8    18 1   
    23     9    10 1   
    24     9    11 1   
    25     9    20 2   
    26    10    41 1   
    27    11    12 1   
    28    11    19 1   
    29    11    42 1   
    30    12    19 1   
    31    12    43 1   
    32    12    44 1   
    33    13    22 ar  
    34    13    23 ar  
    35    13    61 1   
    36    14    15 ar  
    37    14    22 ar  
    38    14    45 1   
    39    15    21 ar  
    40    15    46 1   
    41    16    36 2   
    42    16    47 1   
    43    18    48 1   
    44    19    49 1   
    45    19    50 1   
    46    21    23 ar  
    47    22    51 1   
    48    23    52 1   
    49    24    25 1   
    50    24    60 1   
    51    25    26 2   
    52    26    27 1   
    53    27    28 1   
    54    29    30 1   
    55    29    32 ar  
    56    30    31 1   
    57    31    53 1   
    58    31    54 1   
    59    31    55 1   
    60    33    34 2   
    61    33    56 1   
    62    34    35 1   
    63    34    36 1   
    64    35    57 1   
    65    35    58 1   
    66    35    59 1   
    67    60    62 1   
    68    60    63 1   
@<TRIPOS>SUBSTRUCTURE
     1 31V         1 TEMP              0 ****  ****    0 ROOT
