@<TRIPOS>MOLECULE
31V
   63    68     1     0     0
SMALL
abcg2


@<TRIPOS>ATOM
      1 C2           4.9700     0.6780    -1.3100 ca         1 31V      -0.075000
      2 C3           3.6370     0.8660    -0.9830 ca         1 31V      -0.136000
      3 N4          -5.9120    -0.2900    -0.2100 na         1 31V       0.185000
      4 C5           4.1770     0.5150     1.3370 ca         1 31V      -0.168000
      5 N6           7.2570     0.1900    -0.6860 na         1 31V      -0.067300
      6 C7           0.7590     1.3290    -0.0700 cc         1 31V      -0.172000
      7 C9          -2.3600     0.3770     0.1730 c          1 31V       0.595100
      8 C10         -4.5750    -0.4540    -0.3650 cc         1 31V       0.004600
      9 C11         -5.6910    -2.1770    -1.1510 cd         1 31V       0.306300
     10 C12         -4.3840    -1.6760    -0.9630 cd         1 31V      -0.224000
     11 C13         -6.0960    -3.4570    -1.7530 cx         1 31V      -0.166000
     12 C15         -5.3000    -4.7070    -1.4870 cx         1 31V      -0.119400
     13 C18         -6.9230     2.3580     2.1570 ca         1 31V      -0.101500
     14 C20         -8.3170     2.4720     0.2020 ca         1 31V      -0.101500
     15 C21         -7.6350     1.4020    -0.3560 ca         1 31V      -0.109000
     16 C22          8.3410     0.8570    -0.2230 cc         1 31V       0.423400
     17 O           -1.7830    -0.6780     0.0520 o          1 31V      -0.529100
     18 N3          -3.6960     0.5470     0.0070 ns         1 31V      -0.401100
     19 C14         -5.2650    -4.0810    -2.8410 cx         1 31V      -0.119400
     20 N5          -6.5990    -1.3350    -0.7050 nc         1 31V      -0.501800
     21 C16         -6.5980     0.8070     0.3550 ca         1 31V       0.005800
     22 C19         -7.9590     2.9580     1.4540 ca         1 31V      -0.105000
     23 C17         -6.2470     1.2730     1.6170 ca         1 31V      -0.109000
     24 N           -0.2580     1.4340     0.7980 na         1 31V       0.129800
     25 N1           0.1420     1.1840     2.0350 nc         1 31V      -0.186800
     26 N2           1.4000     0.9370     1.9970 nd         1 31V      -0.346000
     27 C6           1.8400     1.0120     0.7180 cd         1 31V       0.256500
     28 C4           3.2350     0.7940     0.3470 ca         1 31V      -0.058500
     29 C            5.5120     0.3070     1.0110 ca         1 31V       0.147100
     30 O1           6.4690     0.0100     1.8990 os         1 31V      -0.331100
     31 C26          6.1220    -0.0880     3.2680 c3         1 31V       0.145900
     32 C1           5.9090     0.4040    -0.3310 ca         1 31V      -0.042200
     33 C24          7.7190    -0.7190    -1.6100 cc         1 31V      -0.224000
     34 C23          9.0720    -0.5560    -1.6540 cd         1 31V       0.245300
     35 C25         10.0670    -1.2960    -2.4790 c3         1 31V      -0.105400
     36 N7           9.4430     0.4360    -0.7810 nd         1 31V      -0.683000
     37 H1           5.2880     0.7510    -2.3420 ha         1 31V       0.130000
     38 H2           2.9260     1.0770    -1.7700 ha         1 31V       0.116000
     39 H3           3.8480     0.4540     2.3650 ha         1 31V       0.146000
     40 H4           0.6400     1.4930    -1.1270 h4         1 31V       0.171000
     41 H5          -3.4510    -2.1310    -1.2430 ha         1 31V       0.167000
     42 H6          -7.1690    -3.5800    -1.8350 hc         1 31V       0.094700
     43 H7          -4.4230    -4.6200    -0.8580 hc         1 31V       0.074450
     44 H8          -5.8510    -5.6290    -1.3600 hc         1 31V       0.074450
     45 H10         -9.1230     2.9350    -0.3500 ha         1 31V       0.121500
     46 H11         -7.8990     1.0310    -1.3370 ha         1 31V       0.134000
     47 H12          8.2620     1.6470     0.5060 h5         1 31V       0.057100
     48 H13         -4.0730     1.4800     0.1090 hn         1 31V       0.331500
     49 H14         -5.7900    -4.5700    -3.6500 hc         1 31V       0.074450
     50 H15         -4.3620    -3.5650    -3.1440 hc         1 31V       0.074450
     51 H16         -8.4890     3.7980     1.8830 ha         1 31V       0.121000
     52 H17         -5.4660     0.7850     2.1870 ha         1 31V       0.134000
     53 H20          5.7370     0.8570     3.6580 h1         1 31V       0.047700
     54 H21          5.3830    -0.8730     3.4450 h1         1 31V       0.047700
     55 H22          7.0370    -0.3400     3.7970 h1         1 31V       0.047700
     56 H23          7.0560    -1.3940    -2.1270 h4         1 31V       0.156000
     57 H24         10.6570    -0.6150    -3.0940 hc         1 31V       0.040700
     58 H25         10.7660    -1.8540    -1.8540 hc         1 31V       0.040700
     59 H26          9.5740    -2.0040    -3.1430 hc         1 31V       0.040700
     60 C8          -1.6430     1.6750     0.5170 c3         1 31V      -0.012400
     61 H9          -6.6480     2.7210     3.1380 ha         1 31V       0.121500
     62 H18         -1.7250     2.3740    -0.3170 h1         1 31V       0.091700
     63 H19         -2.0950     2.1510     1.3870 h1         1 31V       0.091700
@<TRIPOS>BOND
     1     1     2 ar  
     2     1    32 ar  
     3     1    37 1   
     4     2    28 ar  
     5     2    38 1   
     6     3     8 1   
     7     3    20 1   
     8     3    21 1   
     9     4    28 ar  
    10     4    29 ar  
    11     4    39 1   
    12     5    16 1   
    13     5    32 1   
    14     5    33 1   
    15     6    24 1   
    16     6    27 2   
    17     6    40 1   
    18     7    17 2   
    19     7    18 1   
    20     7    60 1   
    21     8    10 2   
    22     8    18 1   
    23     9    10 1   
    24     9    11 1   
    25     9    20 2   
    26    10    41 1   
    27    11    12 1   
    28    11    19 1   
    29    11    42 1   
    30    12    19 1   
    31    12    43 1   
    32    12    44 1   
    33    13    22 ar  
    34    13    23 ar  
    35    13    61 1   
    36    14    15 ar  
    37    14    22 ar  
    38    14    45 1   
    39    15    21 ar  
    40    15    46 1   
    41    16    36 2   
    42    16    47 1   
    43    18    48 1   
    44    19    49 1   
    45    19    50 1   
    46    21    23 ar  
    47    22    51 1   
    48    23    52 1   
    49    24    25 1   
    50    24    60 1   
    51    25    26 2   
    52    26    27 1   
    53    27    28 1   
    54    29    30 1   
    55    29    32 ar  
    56    30    31 1   
    57    31    53 1   
    58    31    54 1   
    59    31    55 1   
    60    33    34 2   
    61    33    56 1   
    62    34    35 1   
    63    34    36 1   
    64    35    57 1   
    65    35    58 1   
    66    35    59 1   
    67    60    62 1   
    68    60    63 1   
@<TRIPOS>SUBSTRUCTURE
     1 31V         1 TEMP              0 ****  ****    0 ROOT
