@<TRIPOS>MOLECULE
31W
   48    51     1     0     0
SMALL
abcg2


@<TRIPOS>ATOM
      1 C2          -1.6930     4.2180     0.7290 cx         1 31W      -0.130400
      2 C3          -2.9670     4.0320    -0.0260 cx         1 31W      -0.130400
      3 C5          -3.1560     0.2020    -0.2660 ca         1 31W      -0.088300
      4 C7          -4.3570    -1.8910    -0.0030 ca         1 31W      -0.131500
      5 C9          -5.9400    -5.0670    -0.6490 cc         1 31W       0.282900
      6 C10         -5.7300    -4.9180    -1.9820 cd         1 31W      -0.273000
      7 C11         -4.4620    -1.6550     1.3680 ca         1 31W      -0.064000
      8 C12         -3.9160    -0.5040     1.9100 ca         1 31W      -0.117000
      9 C13         -3.2690     0.4220     1.1020 ca         1 31W      -0.083000
     10 C15          2.3470     0.7400     1.0080 ca         1 31W      -0.143000
     11 C18          6.7780     0.7170     0.6370 c3         1 31W       0.512000
     12 C20          2.9630     2.9510     0.2920 ca         1 31W      -0.143000
     13 O1          -0.1550     0.2540    -0.3700 o          1 31W      -0.604100
     14 C           -0.3170     1.4600    -0.2720 c          1 31W       0.657100
     15 N2           0.6720     2.3180     0.1350 ns         1 31W      -0.161000
     16 C14          1.9810     1.9730     0.4660 ca         1 31W       0.008000
     17 C19          4.2820     2.7080     0.6330 ca         1 31W      -0.072000
     18 C17          4.6270     1.4710     1.1490 ca         1 31W       0.057100
     19 O            5.9410     1.2340     1.5430 os         1 31W      -0.399100
     20 F2           7.9640     0.5880     1.2110 f          1 31W      -0.110333
     21 F1           6.3900    -0.4840     0.2020 f          1 31W      -0.110333
     22 F            6.9160     1.4900    -0.4420 f          1 31W      -0.110333
     23 C16          3.6700     0.4920     1.3410 ca         1 31W      -0.072000
     24 N           -1.5170     2.0470    -0.5660 n          1 31W      -0.402800
     25 C1          -1.6960     3.4670    -0.5740 cx         1 31W       0.021700
     26 C4          -2.5120     1.2020    -1.1940 c3         1 31W       0.167300
     27 C6          -3.7000    -0.9580    -0.8030 ca         1 31W      -0.087000
     28 C8          -4.9320    -3.1120    -0.5700 cd         1 31W       0.495900
     29 S           -4.9320    -3.4340    -2.2740 ss         1 31W      -0.029400
     30 N1          -5.4900    -4.0490     0.1340 nc         1 31W      -0.647000
     31 H1          -1.2310     5.1970     0.7460 hc         1 31W       0.083450
     32 H2          -1.5610     3.6400     1.6350 hc         1 31W       0.083450
     33 H3          -3.6980     3.3450     0.3820 hc         1 31W       0.083450
     34 H4          -3.3940     4.8800    -0.5440 hc         1 31W       0.083450
     35 H5          -6.4270    -5.9180    -0.1950 h4         1 31W       0.042100
     36 H6          -5.9970    -5.5870    -2.7850 h4         1 31W       0.162000
     37 H7          -4.9650    -2.3720     2.0020 ha         1 31W       0.137000
     38 H8          -3.9950    -0.3240     2.9740 ha         1 31W       0.116000
     39 H9          -2.8420     1.3110     1.5480 ha         1 31W       0.114000
     40 H10          1.6120    -0.0280     1.1860 ha         1 31W       0.133500
     41 H11          2.6940     3.9160    -0.1200 ha         1 31W       0.133500
     42 H12          0.5050     3.3060     0.0300 hn         1 31W       0.157000
     43 H13          5.0260     3.4820     0.5020 ha         1 31W       0.134500
     44 H14          3.9410    -0.4620     1.7750 ha         1 31W       0.134500
     45 H15         -1.2790     3.9830    -1.4360 h1         1 31W       0.078700
     46 H16         -2.0910     0.6760    -2.0540 h1         1 31W       0.058200
     47 H17         -3.2860     1.8600    -1.5930 h1         1 31W       0.058200
     48 H18         -3.5930    -1.1300    -1.8690 ha         1 31W       0.113000
@<TRIPOS>BOND
     1     1     2 1   
     2     1    25 1   
     3     1    31 1   
     4     1    32 1   
     5     2    25 1   
     6     2    33 1   
     7     2    34 1   
     8     3     9 ar  
     9     3    26 1   
    10     3    27 ar  
    11     4     7 ar  
    12     4    27 ar  
    13     4    28 1   
    14     5     6 2   
    15     5    30 1   
    16     5    35 1   
    17     6    29 1   
    18     6    36 1   
    19     7     8 ar  
    20     7    37 1   
    21     8     9 ar  
    22     8    38 1   
    23     9    39 1   
    24    10    16 ar  
    25    10    23 ar  
    26    10    40 1   
    27    11    19 1   
    28    11    20 1   
    29    11    21 1   
    30    11    22 1   
    31    12    16 ar  
    32    12    17 ar  
    33    12    41 1   
    34    13    14 2   
    35    14    15 1   
    36    14    24 1   
    37    15    16 1   
    38    15    42 1   
    39    17    18 ar  
    40    17    43 1   
    41    18    19 1   
    42    18    23 ar  
    43    23    44 1   
    44    24    25 1   
    45    24    26 1   
    46    25    45 1   
    47    26    46 1   
    48    26    47 1   
    49    27    48 1   
    50    28    29 1   
    51    28    30 2   
@<TRIPOS>SUBSTRUCTURE
     1 31W         1 TEMP              0 ****  ****    0 ROOT
