@<TRIPOS>MOLECULE
31W
   48    51     1     0     0
SMALL
No Charge or Current Charge


@<TRIPOS>ATOM
      1 C2          -1.6800     4.1860     0.7810 cx         1 31W      -0.130400
      2 C3          -3.0100     4.1100     0.0730 cx         1 31W      -0.130400
      3 C5          -3.3110     0.2610    -0.3140 ca         1 31W      -0.088300
      4 C7          -4.4160    -1.9120     0.0240 ca         1 31W      -0.131500
      5 C9          -5.9800    -5.1530    -0.4930 cc         1 31W       0.282900
      6 C10         -5.7940    -5.0440    -1.8470 cd         1 31W      -0.273000
      7 C11         -4.4190    -1.6670     1.4170 ca         1 31W      -0.064000
      8 C12         -3.8780    -0.4800     1.9360 ca         1 31W      -0.117000
      9 C13         -3.3270     0.4810     1.0770 ca         1 31W      -0.083000
     10 C15          2.6830     0.7580     0.1210 ca         1 31W      -0.143000
     11 C18          6.9250     0.4350     1.1740 c3         1 31W       0.512000
     12 C20          2.8250     3.1270     0.6250 ca         1 31W      -0.143000
     13 O1          -0.1720     0.2340    -0.8070 o          1 31W      -0.604100
     14 C           -0.3220     1.4250    -0.5640 c          1 31W       0.657100
     15 N2           0.6940     2.2540    -0.1080 ns         1 31W      -0.161000
     16 C14          2.0610     2.0230     0.2050 ca         1 31W       0.008000
     17 C19          4.1840     2.9760     0.9530 ca         1 31W      -0.072000
     18 C17          4.8040     1.7200     0.8680 ca         1 31W       0.057100
     19 O            6.1450     1.6480     1.2080 os         1 31W      -0.399100
     20 F2           8.1980     0.6770     1.5560 f          1 31W      -0.110333
     21 F1           6.4360    -0.5090     2.0110 f          1 31W      -0.110333
     22 F            6.9830    -0.0990    -0.0680 f          1 31W      -0.110333
     23 C16          4.0430     0.6050     0.4490 ca         1 31W      -0.072000
     24 N           -1.5700     2.0650    -0.7430 n          1 31W      -0.402800
     25 C1          -1.7780     3.5070    -0.5660 cx         1 31W       0.021700
     26 C4          -2.7210     1.2960    -1.2750 c3         1 31W       0.167300
     27 C6          -3.8570    -0.9310    -0.8300 ca         1 31W      -0.087000
     28 C8          -4.9890    -3.1680    -0.5220 cd         1 31W       0.495900
     29 S           -5.0030    -3.5330    -2.2510 ss         1 31W      -0.029400
     30 N1          -5.5290    -4.0990     0.2600 nc         1 31W      -0.647000
     31 H1          -1.1830     5.1520     0.8250 hc         1 31W       0.083450
     32 H2          -1.5400     3.5610     1.6600 hc         1 31W       0.083450
     33 H3          -3.7620     3.4420     0.4820 hc         1 31W       0.083450
     34 H4          -3.4050     5.0240    -0.3630 hc         1 31W       0.083450
     35 H5          -6.4450    -5.9850     0.0190 h4         1 31W       0.042100
     36 H6          -6.0730    -5.7530    -2.6160 h4         1 31W       0.162000
     37 H7          -4.8400    -2.3960     2.1070 ha         1 31W       0.137000
     38 H8          -3.8870    -0.3060     3.0100 ha         1 31W       0.116000
     39 H9          -2.9120     1.3930     1.4980 ha         1 31W       0.114000
     40 H10          2.1330    -0.1220    -0.1950 ha         1 31W       0.133500
     41 H11          2.3660     4.1100     0.6990 ha         1 31W       0.133500
     42 H12          0.4010     3.2110     0.0360 hn         1 31W       0.157000
     43 H13          4.7610     3.8400     1.2760 ha         1 31W       0.134500
     44 H14          4.4820    -0.3850     0.3700 ha         1 31W       0.134500
     45 H15         -1.3560     4.0220    -1.4310 h1         1 31W       0.078700
     46 H16         -2.3940     0.7870    -2.1910 h1         1 31W       0.058200
     47 H17         -3.5200     1.9870    -1.5740 h1         1 31W       0.058200
     48 H18         -3.8390    -1.0840    -1.9060 ha         1 31W       0.113000
@<TRIPOS>BOND
     1     1     2 1   
     2     1    25 1   
     3     1    31 1   
     4     1    32 1   
     5     2    25 1   
     6     2    33 1   
     7     2    34 1   
     8     3     9 ar  
     9     3    26 1   
    10     3    27 ar  
    11     4     7 ar  
    12     4    27 ar  
    13     4    28 1   
    14     5     6 2   
    15     5    30 1   
    16     5    35 1   
    17     6    29 1   
    18     6    36 1   
    19     7     8 ar  
    20     7    37 1   
    21     8     9 ar  
    22     8    38 1   
    23     9    39 1   
    24    10    16 ar  
    25    10    23 ar  
    26    10    40 1   
    27    11    19 1   
    28    11    20 1   
    29    11    21 1   
    30    11    22 1   
    31    12    16 ar  
    32    12    17 ar  
    33    12    41 1   
    34    13    14 2   
    35    14    15 1   
    36    14    24 1   
    37    15    16 1   
    38    15    42 1   
    39    17    18 ar  
    40    17    43 1   
    41    18    19 1   
    42    18    23 ar  
    43    23    44 1   
    44    24    25 1   
    45    24    26 1   
    46    25    45 1   
    47    26    46 1   
    48    26    47 1   
    49    27    48 1   
    50    28    29 1   
    51    28    30 2   
@<TRIPOS>SUBSTRUCTURE
     1 31W         1 TEMP              0 ****  ****    0 ROOT
