@<TRIPOS>MOLECULE
31X
   51    56     1     0     0
SMALL
No Charge or Current Charge


@<TRIPOS>ATOM
      1 C2          35.9280   -33.1500    -9.2100 cc         1 31X       0.537500
      2 C3          37.2360   -32.6160    -8.8070 ca         1 31X      -0.145500
      3 C5          39.3230   -32.8450    -7.5460 ca         1 31X      -0.126500
      4 C7          38.9380   -30.8570    -8.8890 ca         1 31X      -0.126500
      5 C9          30.6740   -34.7010    -9.2820 cc         1 31X      -0.074300
      6 C10         30.2070   -34.6320   -10.7040 c          1 31X       0.722200
      7 C11         29.8750   -34.4170    -8.1740 cd         1 31X      -0.241200
      8 C12         30.6120   -34.5590    -6.9380 ca         1 31X      -0.127800
      9 C13         30.2790   -34.3900    -5.5700 cp         1 31X       0.408500
     10 C15         28.2850   -32.7730    -5.5100 ca         1 31X      -0.017000
     11 C18         27.0160   -30.3580    -6.2770 ca         1 31X      -0.107000
     12 C20         28.9600   -31.8220    -6.3110 ca         1 31X      -0.069000
     13 C21         26.2740   -33.3820    -4.2510 ca         1 31X      -0.112000
     14 C22         26.8870   -34.5730    -3.8390 ca         1 31X      -0.110000
     15 O2          29.0470   -34.3100   -10.9250 o          1 31X      -0.702500
     16 O1          30.9920   -34.9010   -11.6020 o          1 31X      -0.702500
     17 C26         31.8640   -34.9450    -7.3210 ca         1 31X      -0.036200
     18 N           31.9270   -35.0330    -8.7090 na         1 31X      -0.079700
     19 C1          34.1870   -34.2790    -9.5010 cd         1 31X       0.544300
     20 N2          35.3990   -34.2990    -8.8460 nd         1 31X      -0.711000
     21 C8          37.6850   -31.3610    -9.2800 ca         1 31X      -0.061500
     22 C6          39.7580   -31.5980    -8.0220 ca         1 31X      -0.094000
     23 C4          38.0710   -33.3520    -7.9350 ca         1 31X      -0.061500
     24 O           35.1340   -32.4250   -10.0470 os         1 31X      -0.126700
     25 N1          33.9680   -33.1990   -10.2350 nc         1 31X      -0.327300
     26 C25         32.8400   -35.1920    -6.3450 ca         1 31X      -0.156000
     27 C24         32.4570   -35.0330    -4.9970 ca         1 31X       0.300900
     28 N3          31.2090   -34.6510    -4.6130 nb         1 31X      -0.704000
     29 C14         28.9090   -33.9960    -5.1140 cp         1 31X      -0.090500
     30 C23         28.1890   -34.8740    -4.2650 ca         1 31X      -0.095000
     31 C16         26.9660   -32.4800    -5.0780 ca         1 31X      -0.038000
     32 C17         26.3390   -31.2810    -5.4670 ca         1 31X      -0.114000
     33 C19         28.3280   -30.6270    -6.6940 ca         1 31X      -0.119000
     34 H1          39.9560   -33.4200    -6.8750 ha         1 31X       0.114000
     35 H2          39.2740   -29.8910    -9.2580 ha         1 31X       0.114000
     36 H3          28.8300   -34.1240    -8.2430 ha         1 31X       0.223000
     37 H4          26.5280   -29.4320    -6.5740 ha         1 31X       0.101000
     38 H5          29.9820   -31.9900    -6.6390 ha         1 31X       0.135000
     39 H6          25.2630   -33.1570    -3.9190 ha         1 31X       0.100000
     40 H7          26.3510   -35.2670    -3.1950 ha         1 31X       0.102000
     41 H9          32.9630   -35.7580   -10.4070 h1         1 31X       0.099200
     42 H10         33.6480   -36.2330    -8.8630 h1         1 31X       0.099200
     43 H11         37.0680   -30.7680    -9.9530 ha         1 31X       0.139000
     44 H12         40.7270   -31.2070    -7.7210 ha         1 31X       0.108000
     45 H13         37.7500   -34.3200    -7.5560 ha         1 31X       0.139000
     46 H14         33.8500   -35.5010    -6.5990 ha         1 31X       0.113000
     47 H15         33.1700   -35.2210    -4.1950 h4         1 31X      -0.003900
     48 H16         28.6480   -35.8080    -3.9480 ha         1 31X       0.119000
     49 H17         25.3250   -31.0620    -5.1380 ha         1 31X       0.100000
     50 H18         28.8590   -29.9070    -7.3130 ha         1 31X       0.110000
     51 C           33.1840   -35.3980    -9.3980 c3         1 31X       0.054300
@<TRIPOS>BOND
     1     1     2 1   
     2     1    20 2   
     3     1    24 1   
     4     2    21 ar  
     5     2    23 ar  
     6     3    22 ar  
     7     3    23 ar  
     8     3    34 1   
     9     4    21 ar  
    10     4    22 ar  
    11     4    35 1   
    12     5     6 1   
    13     5     7 2   
    14     5    18 1   
    15     6    15 1   
    16     6    16 1   
    17     7     8 1   
    18     7    36 1   
    19     8     9 ar  
    20     8    17 ar  
    21     9    28 ar  
    22     9    29 1   
    23    10    12 ar  
    24    10    29 ar  
    25    10    31 ar  
    26    11    32 ar  
    27    11    33 ar  
    28    11    37 1   
    29    12    33 ar  
    30    12    38 1   
    31    13    14 ar  
    32    13    31 ar  
    33    13    39 1   
    34    14    30 ar  
    35    14    40 1   
    36    17    18 1   
    37    17    26 ar  
    38    18    51 1   
    39    19    20 1   
    40    19    25 2   
    41    19    51 1   
    42    21    43 1   
    43    22    44 1   
    44    23    45 1   
    45    24    25 1   
    46    26    27 ar  
    47    26    46 1   
    48    27    28 ar  
    49    27    47 1   
    50    29    30 ar  
    51    30    48 1   
    52    31    32 ar  
    53    32    49 1   
    54    33    50 1   
    55    41    51 1   
    56    42    51 1   
@<TRIPOS>SUBSTRUCTURE
     1 31X         1 TEMP              0 ****  ****    0 ROOT
