@<TRIPOS>MOLECULE
31X
   51    56     1     0     0
SMALL
abcg2


@<TRIPOS>ATOM
      1 C2          35.5240   -33.3730    -9.3540 cc         1 31X       0.537500
      2 C3          36.4100   -32.4120    -8.7150 ca         1 31X      -0.145500
      3 C5          37.2500   -31.4040    -6.6920 ca         1 31X      -0.126500
      4 C7          38.0940   -30.6920    -8.8380 ca         1 31X      -0.126500
      5 C9          30.8160   -34.7870    -9.3840 cc         1 31X      -0.074300
      6 C10         30.4610   -34.5720   -10.8400 c          1 31X       0.722200
      7 C11         30.0580   -34.4160    -8.3020 cd         1 31X      -0.241200
      8 C12         30.7270   -34.8640    -7.1240 ca         1 31X      -0.127800
      9 C13         30.4620   -34.7970    -5.7460 cp         1 31X       0.408500
     10 C15         28.9920   -32.7450    -5.4570 ca         1 31X      -0.017000
     11 C18         28.4390   -30.0060    -5.8400 ca         1 31X      -0.107000
     12 C20         29.9250   -31.8940    -6.1020 ca         1 31X      -0.069000
     13 C21         26.8450   -32.9890    -4.2850 ca         1 31X      -0.112000
     14 C22         27.1160   -34.3130    -4.0570 ca         1 31X      -0.110000
     15 O2          29.4790   -33.8200   -11.0470 o          1 31X      -0.702500
     16 O1          31.1460   -35.1680   -11.7090 o          1 31X      -0.702500
     17 C26         31.9100   -35.5170    -7.5530 ca         1 31X      -0.036200
     18 N           31.9510   -35.4700    -8.9220 na         1 31X      -0.079700
     19 C1          34.1230   -34.8550    -9.8540 cd         1 31X       0.544300
     20 N2          34.6760   -34.1880    -8.7910 nd         1 31X      -0.711000
     21 C8          37.2570   -31.5970    -9.4740 ca         1 31X      -0.061500
     22 C6          38.0930   -30.5940    -7.4490 ca         1 31X      -0.094000
     23 C4          36.4100   -32.3110    -7.3190 ca         1 31X      -0.061500
     24 O           35.5320   -33.4930   -10.6920 os         1 31X      -0.126700
     25 N1          34.5850   -34.4850   -11.0150 nc         1 31X      -0.327300
     26 C25         32.7810   -36.0800    -6.6210 ca         1 31X      -0.156000
     27 C24         32.4050   -35.9730    -5.2950 ca         1 31X       0.300900
     28 N3          31.2860   -35.3550    -4.8580 nb         1 31X      -0.704000
     29 C14         29.2350   -34.1340    -5.2310 cp         1 31X      -0.090500
     30 C23         28.3160   -34.8820    -4.5290 ca         1 31X      -0.095000
     31 C16         27.7720   -32.1730    -4.9780 ca         1 31X      -0.038000
     32 C17         27.5220   -30.7950    -5.1960 ca         1 31X      -0.114000
     33 C19         29.6560   -30.5620    -6.2890 ca         1 31X      -0.119000
     34 H1          37.2490   -31.3290    -5.6130 ha         1 31X       0.114000
     35 H2          38.7480   -30.0620    -9.4260 ha         1 31X       0.114000
     36 H3          29.1210   -33.8910    -8.3610 ha         1 31X       0.223000
     37 H4          28.2370   -28.9540    -5.9980 ha         1 31X       0.101000
     38 H5          30.8630   -32.3040    -6.4480 ha         1 31X       0.135000
     39 H6          25.9220   -32.5440    -3.9330 ha         1 31X       0.100000
     40 H7          26.4080   -34.9320    -3.5210 ha         1 31X       0.102000
     41 H9          32.7350   -36.2220   -10.6870 h1         1 31X       0.099200
     42 H10         33.5320   -36.7830    -9.2010 h1         1 31X       0.099200
     43 H11         37.2580   -31.6730   -10.5520 ha         1 31X       0.139000
     44 H12         38.7480   -29.8870    -6.9570 ha         1 31X       0.108000
     45 H13         35.7530   -32.9450    -6.7390 ha         1 31X       0.139000
     46 H14         33.7030   -36.5700    -6.8990 ha         1 31X       0.113000
     47 H15         33.0370   -36.3990    -4.5250 h4         1 31X      -0.003900
     48 H16         28.5140   -35.9310    -4.3540 ha         1 31X       0.119000
     49 H17         26.5900   -30.3760    -4.8350 ha         1 31X       0.100000
     50 H18         30.3840   -29.9290    -6.7820 ha         1 31X       0.110000
     51 C           33.0860   -35.9260    -9.7060 c3         1 31X       0.054300
@<TRIPOS>BOND
     1     1     2 1   
     2     1    20 2   
     3     1    24 1   
     4     2    21 ar  
     5     2    23 ar  
     6     3    22 ar  
     7     3    23 ar  
     8     3    34 1   
     9     4    21 ar  
    10     4    22 ar  
    11     4    35 1   
    12     5     6 1   
    13     5     7 2   
    14     5    18 1   
    15     6    15 1   
    16     6    16 1   
    17     7     8 1   
    18     7    36 1   
    19     8     9 ar  
    20     8    17 ar  
    21     9    28 ar  
    22     9    29 1   
    23    10    12 ar  
    24    10    29 ar  
    25    10    31 ar  
    26    11    32 ar  
    27    11    33 ar  
    28    11    37 1   
    29    12    33 ar  
    30    12    38 1   
    31    13    14 ar  
    32    13    31 ar  
    33    13    39 1   
    34    14    30 ar  
    35    14    40 1   
    36    17    18 1   
    37    17    26 ar  
    38    18    51 1   
    39    19    20 1   
    40    19    25 2   
    41    19    51 1   
    42    21    43 1   
    43    22    44 1   
    44    23    45 1   
    45    24    25 1   
    46    26    27 ar  
    47    26    46 1   
    48    27    28 ar  
    49    27    47 1   
    50    29    30 ar  
    51    30    48 1   
    52    31    32 ar  
    53    32    49 1   
    54    33    50 1   
    55    41    51 1   
    56    42    51 1   
@<TRIPOS>SUBSTRUCTURE
     1 31X         1 TEMP              0 ****  ****    0 ROOT
