@<TRIPOS>MOLECULE
31Y
   54    58     1     0     0
SMALL
No Charge or Current Charge


@<TRIPOS>ATOM
      1 C2           1.9740    -3.7150     0.4530 ca         1 31Y      -0.036000
      2 C3          -0.1890    -4.5050     0.5990 ca         1 31Y       0.153900
      3 N4           7.0570     3.2360     0.6560 nb         1 31Y      -0.664000
      4 C5           4.2070    -2.7970     0.3110 ca         1 31Y      -0.189000
      5 N6          -5.7300     1.2580    -0.0290 nh         1 31Y      -0.776400
      6 C7           5.7340    -0.2100    -0.2540 c3         1 31Y       0.279100
      7 C9           6.7230     1.9230     0.6940 ca         1 31Y       0.349900
      8 C10          6.7370     3.9350    -0.4570 ca         1 31Y       0.345900
      9 C11          6.0850     3.3590    -1.5600 ca         1 31Y      -0.166000
     10 C12          5.7420     1.9980    -1.5190 ca         1 31Y      -0.050000
     11 C13         -1.8340    -0.4590     0.1730 ca         1 31Y       0.272000
     12 C15         -3.3480     1.4310     0.5050 ca         1 31Y      -0.133000
     13 C18         -2.9190    -1.2120    -0.3170 ca         1 31Y      -0.117000
     14 C20         -8.2170     1.2240     0.4940 c6         1 31Y       0.147600
     15 C21         -7.2380     3.2920    -0.2490 c6         1 31Y       0.147600
     16 C22         -5.9430     2.5700    -0.7280 c6         1 31Y       0.155800
     17 O           -8.3800     2.4050    -0.3240 os         1 31Y      -0.445000
     18 C19         -6.9650     0.4090     0.0490 c6         1 31Y       0.155800
     19 C16         -4.4380     0.6780     0.0290 ca         1 31Y       0.264000
     20 C14         -2.0590     0.8690     0.5710 ca         1 31Y      -0.117000
     21 C17         -4.2090    -0.6500    -0.3830 ca         1 31Y      -0.133000
     22 C            0.0510    -2.2420     0.3420 ca         1 31Y       0.400900
     23 N1          -0.7710    -3.2970     0.4890 nb         1 31Y      -0.271000
     24 N            1.1340    -4.7650     0.5860 nb         1 31Y      -0.190000
     25 C1           1.4750    -2.3850     0.3270 ca         1 31Y       0.189000
     26 N2           2.3100    -1.3070     0.2030 nb         1 31Y      -0.762000
     27 C6           3.6220    -1.5310     0.1950 ca         1 31Y       0.613900
     28 C4           3.3670    -3.9120     0.4430 ca         1 31Y      -0.026000
     29 N3           4.3180    -0.3670     0.0690 nu         1 31Y      -0.930100
     30 C8           6.0680     1.2640    -0.3630 ca         1 31Y      -0.169300
     31 H1          -0.8530    -5.3600     0.7120 h5         1 31Y       0.046100
     32 H2           5.2850    -2.9160     0.3040 ha         1 31Y       0.126000
     33 H3           6.3560    -0.6760     0.5240 h1         1 31Y       0.048700
     34 H4           5.9630    -0.7060    -1.2070 h1         1 31Y       0.048700
     35 H5           6.9930     1.3860     1.6030 h4         1 31Y       0.020100
     36 H6           7.0140     4.9890    -0.4650 h4         1 31Y       0.023100
     37 H7           5.8520     3.9650    -2.4310 ha         1 31Y       0.128000
     38 H8           5.2370     1.5260    -2.3600 ha         1 31Y       0.128000
     39 H9          -3.4990     2.4530     0.8400 ha         1 31Y       0.114000
     40 H10         -2.7750    -2.2270    -0.6700 ha         1 31Y       0.130500
     41 H11         -8.1090     1.5250     1.5460 h1         1 31Y       0.052450
     42 H12         -9.1170     0.5990     0.4100 h1         1 31Y       0.052450
     43 H13         -7.1140     3.6320     0.7890 h1         1 31Y       0.052450
     44 H14         -7.4260     4.1750    -0.8760 h1         1 31Y       0.052450
     45 H15         -5.0920     3.2460    -0.5620 h1         1 31Y       0.046450
     46 H16         -6.0130     2.4030    -1.8130 h1         1 31Y       0.046450
     47 H17         -7.1710    -0.0440    -0.9330 h1         1 31Y       0.046450
     48 H18         -6.8170    -0.4130     0.7650 h1         1 31Y       0.046450
     49 H19         -1.2350     1.4700     0.9460 ha         1 31Y       0.130500
     50 H20         -5.0240    -1.2520    -0.7740 ha         1 31Y       0.114000
     51 H21          0.2000    -0.2530     0.2930 hn         1 31Y       0.523000
     52 H22          3.7870    -4.9120     0.5380 ha         1 31Y       0.138000
     53 H23          3.7080     0.4330    -0.0630 hn         1 31Y       0.495000
     54 N5          -0.5310    -0.9660     0.2470 nu         1 31Y      -0.910900
@<TRIPOS>BOND
     1     1    24 ar  
     2     1    25 ar  
     3     1    28 ar  
     4     2    23 ar  
     5     2    24 ar  
     6     2    31 1   
     7     3     7 ar  
     8     3     8 ar  
     9     4    27 ar  
    10     4    28 ar  
    11     4    32 1   
    12     5    16 1   
    13     5    18 1   
    14     5    19 1   
    15     6    29 1   
    16     6    30 1   
    17     6    33 1   
    18     6    34 1   
    19     7    30 ar  
    20     7    35 1   
    21     8     9 ar  
    22     8    36 1   
    23     9    10 ar  
    24     9    37 1   
    25    10    30 ar  
    26    10    38 1   
    27    11    13 ar  
    28    11    20 ar  
    29    11    54 1   
    30    12    19 ar  
    31    12    20 ar  
    32    12    39 1   
    33    13    21 ar  
    34    13    40 1   
    35    14    17 1   
    36    14    18 1   
    37    14    41 1   
    38    14    42 1   
    39    15    16 1   
    40    15    17 1   
    41    15    43 1   
    42    15    44 1   
    43    16    45 1   
    44    16    46 1   
    45    18    47 1   
    46    18    48 1   
    47    19    21 ar  
    48    20    49 1   
    49    21    50 1   
    50    22    23 ar  
    51    22    25 ar  
    52    22    54 1   
    53    25    26 ar  
    54    26    27 ar  
    55    27    29 1   
    56    28    52 1   
    57    29    53 1   
    58    51    54 1   
@<TRIPOS>SUBSTRUCTURE
     1 31Y         1 TEMP              0 ****  ****    0 ROOT
