@<TRIPOS>MOLECULE
31Y
   54    58     1     0     0
SMALL
abcg2


@<TRIPOS>ATOM
      1 C2           1.8570    -3.5560     0.1160 ca         1 31Y      -0.036000
      2 C3          -0.2340    -4.3830     0.1950 ca         1 31Y       0.153900
      3 N4           7.0540     3.2890     0.7710 nb         1 31Y      -0.664000
      4 C5           4.0530    -2.5860     0.0690 ca         1 31Y      -0.189000
      5 N6          -5.7650     1.2830     0.2170 nh         1 31Y      -0.776400
      6 C7           5.6130    -0.1340     0.1950 c3         1 31Y       0.279100
      7 C9           6.5840     2.0600     0.9490 ca         1 31Y       0.349900
      8 C10          7.1100     3.7560    -0.4690 ca         1 31Y       0.345900
      9 C11          6.7080     3.0210    -1.5770 ca         1 31Y      -0.166000
     10 C12          6.2220     1.7410    -1.3780 ca         1 31Y      -0.050000
     11 C13         -1.8850    -0.4120     0.0490 ca         1 31Y       0.272000
     12 C15         -3.3440     1.5220     0.0890 ca         1 31Y      -0.133000
     13 C18         -3.0140    -1.2250     0.0920 ca         1 31Y      -0.117000
     14 C20         -8.1450     1.1440     0.7240 c6         1 31Y       0.147600
     15 C21         -7.3630     3.0520    -0.3120 c6         1 31Y       0.147600
     16 C22         -6.0770     2.3570    -0.7170 c6         1 31Y       0.155800
     17 O           -8.4400     2.1500    -0.2160 os         1 31Y      -0.445000
     18 C19         -6.8870     0.3750     0.3640 c6         1 31Y       0.155800
     19 C16         -4.4910     0.7150     0.1340 ca         1 31Y       0.264000
     20 C14         -2.0790     0.9730     0.0470 ca         1 31Y      -0.117000
     21 C17         -4.2850    -0.6660     0.1260 ca         1 31Y      -0.133000
     22 C           -0.0690    -2.1160     0.0630 ca         1 31Y       0.400900
     23 N1          -0.8360    -3.1830     0.1360 nb         1 31Y      -0.271000
     24 N            1.0410    -4.6400     0.1870 nb         1 31Y      -0.190000
     25 C1           1.3670    -2.2510     0.0500 ca         1 31Y       0.189000
     26 N2           2.1330    -1.1540    -0.0010 nb         1 31Y      -0.762000
     27 C6           3.4440    -1.2970     0.0040 ca         1 31Y       0.613900
     28 C4           3.2640    -3.6940     0.1220 ca         1 31Y      -0.026000
     29 N3           4.1910    -0.1680    -0.0720 nu         1 31Y      -0.930100
     30 C8           6.1550     1.2360    -0.0840 ca         1 31Y      -0.169300
     31 H1          -0.9070    -5.2330     0.2520 h5         1 31Y       0.046100
     32 H2           5.1280    -2.6910     0.0860 ha         1 31Y       0.126000
     33 H3           5.8420    -0.4230     1.2280 h1         1 31Y       0.048700
     34 H4           6.1200    -0.8520    -0.4530 h1         1 31Y       0.048700
     35 H5           6.5440     1.7020     1.9740 h4         1 31Y       0.020100
     36 H6           7.4950     4.7620    -0.5930 h4         1 31Y       0.023100
     37 H7           6.7780     3.4470    -2.5680 ha         1 31Y       0.128000
     38 H8           5.9000     1.1380    -2.2190 ha         1 31Y       0.128000
     39 H9          -3.4280     2.6000     0.1160 ha         1 31Y       0.114000
     40 H10         -2.9150    -2.2980     0.0880 ha         1 31Y       0.130500
     41 H11         -8.0250     1.5800     1.7260 h1         1 31Y       0.052450
     42 H12         -8.9930     0.4600     0.7560 h1         1 31Y       0.052450
     43 H13         -7.2120     3.5660     0.6480 h1         1 31Y       0.052450
     44 H14         -7.6240     3.8000    -1.0610 h1         1 31Y       0.052450
     45 H15         -5.2950     3.1190    -0.7390 h1         1 31Y       0.046450
     46 H16         -6.1740     1.9640    -1.7400 h1         1 31Y       0.046450
     47 H17         -7.0560    -0.2100    -0.5510 h1         1 31Y       0.046450
     48 H18         -6.6870    -0.3320     1.1700 h1         1 31Y       0.046450
     49 H19         -1.2240     1.6370     0.0220 ha         1 31Y       0.130500
     50 H20         -5.1210    -1.3500     0.1360 ha         1 31Y       0.114000
     51 H21          0.1490    -0.1560    -0.0460 hn         1 31Y       0.523000
     52 H22          3.6990    -4.6840     0.1770 ha         1 31Y       0.138000
     53 H23          3.6780     0.6870     0.0870 hn         1 31Y       0.495000
     54 N5          -0.5680    -0.8690     0.0020 nu         1 31Y      -0.910900
@<TRIPOS>BOND
     1     1    24 ar  
     2     1    25 ar  
     3     1    28 ar  
     4     2    23 ar  
     5     2    24 ar  
     6     2    31 1   
     7     3     7 ar  
     8     3     8 ar  
     9     4    27 ar  
    10     4    28 ar  
    11     4    32 1   
    12     5    16 1   
    13     5    18 1   
    14     5    19 1   
    15     6    29 1   
    16     6    30 1   
    17     6    33 1   
    18     6    34 1   
    19     7    30 ar  
    20     7    35 1   
    21     8     9 ar  
    22     8    36 1   
    23     9    10 ar  
    24     9    37 1   
    25    10    30 ar  
    26    10    38 1   
    27    11    13 ar  
    28    11    20 ar  
    29    11    54 1   
    30    12    19 ar  
    31    12    20 ar  
    32    12    39 1   
    33    13    21 ar  
    34    13    40 1   
    35    14    17 1   
    36    14    18 1   
    37    14    41 1   
    38    14    42 1   
    39    15    16 1   
    40    15    17 1   
    41    15    43 1   
    42    15    44 1   
    43    16    45 1   
    44    16    46 1   
    45    18    47 1   
    46    18    48 1   
    47    19    21 ar  
    48    20    49 1   
    49    21    50 1   
    50    22    23 ar  
    51    22    25 ar  
    52    22    54 1   
    53    25    26 ar  
    54    26    27 ar  
    55    27    29 1   
    56    28    52 1   
    57    29    53 1   
    58    51    54 1   
@<TRIPOS>SUBSTRUCTURE
     1 31Y         1 TEMP              0 ****  ****    0 ROOT
