@<TRIPOS>MOLECULE
31Z
   56    59     1     0     0
SMALL
abcg2


@<TRIPOS>ATOM
      1 C1           8.2070    -2.4900     0.7120 c3         1 31Z      -0.015900
      2 C2           7.4910    -1.2740     0.2230 cc         1 31Z      -0.280400
      3 C3           6.2250    -0.9770     0.5680 cd         1 31Z       0.001600
      4 N4           5.5360     0.1280     0.1420 n          1 31Z      -0.303000
      5 C5           6.1300     1.0340    -0.7040 c          1 31Z       0.614000
      6 O6           5.5790     2.0310    -1.1280 o          1 31Z      -0.557000
      7 N7           7.4230     0.7300    -1.0490 ns         1 31Z      -0.469500
      8 C8           8.1810    -0.3580    -0.6610 c          1 31Z       0.589200
      9 O9           9.3260    -0.4920    -1.0540 o          1 31Z      -0.541000
     10 C10          4.1610     0.3290     0.6260 c6         1 31Z       0.118700
     11 C11          3.9860     1.5790     1.4790 c6         1 31Z      -0.090400
     12 C12          2.5510     1.6230     1.9930 c6         1 31Z      -0.075400
     13 C13          1.5560     1.4780     0.8530 c6         1 31Z       0.162800
     14 N14          1.8020     0.2540     0.1090 n3         1 31Z      -0.729600
     15 C15          3.1230     0.2560    -0.4910 c6         1 31Z       0.159800
     16 C16          0.7610    -0.0180    -0.8560 c3         1 31Z       0.234100
     17 C17         -0.4910    -0.5600    -0.2090 ca         1 31Z      -0.155300
     18 C18         -0.4900    -1.1370     1.0570 ca         1 31Z      -0.101000
     19 C19         -1.6530    -1.6410     1.6140 ca         1 31Z      -0.103000
     20 C20         -2.8660    -1.6340     0.9300 ca         1 31Z      -0.116600
     21 C21         -2.8700    -1.0700    -0.3450 ca         1 31Z       0.072100
     22 C22         -1.7040    -0.5340    -0.8730 ca         1 31Z       0.132000
     23 F23         -1.7680     0.0230    -2.0950 f          1 31Z      -0.193000
     24 O24         -3.9780    -1.0090    -1.1420 os         1 31Z      -0.219200
     25 C25         -5.0210    -0.2230    -0.7760 ca         1 31Z       0.200100
     26 C26         -4.9220     0.7990     0.1600 ca         1 31Z      -0.169000
     27 C27         -6.0400     1.5760     0.4310 ca         1 31Z      -0.074000
     28 C28         -7.2480     1.3590    -0.2130 ca         1 31Z      -0.156000
     29 C29         -7.3110     0.3350    -1.1480 ca         1 31Z       0.150000
     30 C30         -6.2200    -0.4630    -1.4370 ca         1 31Z      -0.117000
     31 CL          -8.8060     0.0360    -1.9760 cl         1 31Z      -0.241000
     32 C32         -4.0990    -2.2630     1.5790 c          1 31Z       0.713600
     33 O33         -4.9630    -2.7230     0.8150 o          1 31Z      -0.698000
     34 O34         -4.1040    -2.2730     2.8230 o          1 31Z      -0.698000
     35 H1           8.5310    -3.1200    -0.1170 hc         1 31Z       0.044033
     36 H2           9.0990    -2.2240     1.2810 hc         1 31Z       0.044033
     37 H3           7.5630    -3.0870     1.3550 hc         1 31Z       0.044033
     38 H4           5.6690    -1.6290     1.2280 h4         1 31Z       0.208000
     39 H5           7.8660     1.3930    -1.6730 hn         1 31Z       0.338500
     40 H6           3.9690    -0.5300     1.2730 h1         1 31Z       0.067700
     41 H7           4.6930     1.5620     2.3120 hc         1 31Z       0.054200
     42 H8           4.1920     2.4750     0.8940 hc         1 31Z       0.054200
     43 H9           2.3870     0.8160     2.7140 hc         1 31Z       0.049700
     44 H10          2.3720     2.5630     2.5170 hc         1 31Z       0.049700
     45 H11          0.5410     1.4510     1.2560 h1         1 31Z       0.045200
     46 H12          1.6110     2.3610     0.1930 h1         1 31Z       0.045200
     47 H14          3.2530     1.0860    -1.1990 h1         1 31Z       0.049200
     48 H15          3.2600    -0.6750    -1.0470 h1         1 31Z       0.049200
     49 H16          0.5210     0.8700    -1.4600 h1         1 31Z       0.039700
     50 H17          1.1310    -0.7670    -1.5620 h1         1 31Z       0.039700
     51 H18          0.4400    -1.1760     1.6090 ha         1 31Z       0.111000
     52 H19         -1.6230    -2.0670     2.6080 ha         1 31Z       0.136000
     53 H20         -3.9930     1.0000     0.6770 ha         1 31Z       0.128000
     54 H21         -5.9650     2.3720     1.1610 ha         1 31Z       0.102000
     55 H22         -8.1120     1.9700     0.0030 ha         1 31Z       0.113000
     56 H23         -6.2900    -1.2610    -2.1650 ha         1 31Z       0.141000
@<TRIPOS>BOND
     1     1     2 1   
     2     1    35 1   
     3     1    36 1   
     4     1    37 1   
     5     2     3 2   
     6     2     8 1   
     7     3     4 1   
     8     3    38 1   
     9     4     5 1   
    10     4    10 1   
    11     5     6 2   
    12     5     7 1   
    13     7     8 1   
    14     7    39 1   
    15     8     9 2   
    16    10    11 1   
    17    10    15 1   
    18    10    40 1   
    19    11    12 1   
    20    11    41 1   
    21    11    42 1   
    22    12    13 1   
    23    12    43 1   
    24    12    44 1   
    25    13    14 1   
    26    13    45 1   
    27    13    46 1   
    28    14    15 1   
    29    14    16 1   
    30    15    47 1   
    31    15    48 1   
    32    16    17 1   
    33    16    49 1   
    34    16    50 1   
    35    17    18 ar  
    36    17    22 ar  
    37    18    19 ar  
    38    18    51 1   
    39    19    20 ar  
    40    19    52 1   
    41    20    21 ar  
    42    20    32 1   
    43    21    22 ar  
    44    21    24 1   
    45    22    23 1   
    46    24    25 1   
    47    25    26 ar  
    48    25    30 ar  
    49    26    27 ar  
    50    26    53 1   
    51    27    28 ar  
    52    27    54 1   
    53    28    29 ar  
    54    28    55 1   
    55    29    30 ar  
    56    29    31 1   
    57    30    56 1   
    58    32    33 1   
    59    32    34 1   
@<TRIPOS>SUBSTRUCTURE
     1 31Z         1 TEMP              0 ****  ****    0 ROOT
