@<TRIPOS>MOLECULE
31Z
   56    59     1     0     0
SMALL
No Charge or Current Charge


@<TRIPOS>ATOM
      1 C1           8.5590    -0.6280     1.4610 c3         1 31Z      -0.015900
      2 C2           7.4380    -0.0570     0.6240 cc         1 31Z      -0.280400
      3 C3           6.1010    -0.1650     0.9470 cd         1 31Z       0.001600
      4 N4           5.1170     0.3870     0.1250 n          1 31Z      -0.303000
      5 C5           5.4770     1.0780    -1.0560 c          1 31Z       0.614000
      6 O6           4.6740     1.5930    -1.8150 o          1 31Z      -0.557000
      7 N7           6.8060     1.1530    -1.3250 ns         1 31Z      -0.469500
      8 C8           7.8430     0.6540    -0.6070 c          1 31Z       0.589200
      9 O9           8.9950     0.8030    -0.9800 o          1 31Z      -0.541000
     10 C10          3.6850     0.2330     0.5240 c6         1 31Z       0.118700
     11 C11          3.0300     1.5650     0.9660 c6         1 31Z      -0.090400
     12 C12          1.5760     1.3100     1.4300 c6         1 31Z      -0.075400
     13 C13          0.7650     0.5390     0.3570 c6         1 31Z       0.162800
     14 N14          1.4190    -0.7540    -0.0060 n3         1 31Z      -0.729600
     15 C15          2.8090    -0.5370    -0.5090 c6         1 31Z       0.159800
     16 C16          0.6120    -1.5670    -0.9460 c3         1 31Z       0.234100
     17 C17         -0.7390    -1.9820    -0.3680 ca         1 31Z      -0.155300
     18 C18         -0.8010    -3.0240     0.5750 ca         1 31Z      -0.101000
     19 C19         -2.0330    -3.4160     1.1250 ca         1 31Z      -0.103000
     20 C20         -3.2290    -2.7690     0.7470 ca         1 31Z      -0.116600
     21 C21         -3.1690    -1.7090    -0.1830 ca         1 31Z       0.072100
     22 C22         -1.9300    -1.3300    -0.7490 ca         1 31Z       0.132000
     23 F23         -1.8840    -0.3240    -1.6560 f          1 31Z      -0.193000
     24 O24         -4.3180    -1.0270    -0.5230 os         1 31Z      -0.219200
     25 C25         -4.4740     0.3220    -0.2860 ca         1 31Z       0.200100
     26 C26         -3.7500     0.9810     0.7300 ca         1 31Z      -0.169000
     27 C27         -3.9350     2.3580     0.9480 ca         1 31Z      -0.074000
     28 C28         -4.8480     3.0740     0.1560 ca         1 31Z      -0.156000
     29 C29         -5.5760     2.4150    -0.8470 ca         1 31Z       0.150000
     30 C30         -5.3930     1.0410    -1.0670 ca         1 31Z      -0.117000
     31 Cl          -6.7220     3.3150    -1.8320 cl         1 31Z      -0.241000
     32 C32         -4.5380    -3.2030     1.3580 c          1 31Z       0.713600
     33 O33         -5.4690    -3.4800     0.6140 o          1 31Z      -0.698000
     34 O34         -4.5840    -3.3380     2.5730 o          1 31Z      -0.698000
     35 H1           9.1440    -1.3600     0.8900 hc         1 31Z       0.044033
     36 H2           9.2410     0.1620     1.7990 hc         1 31Z       0.044033
     37 H3           8.1730    -1.1370     2.3530 hc         1 31Z       0.044033
     38 H4           5.7310    -0.6710     1.8360 h4         1 31Z       0.208000
     39 H5           7.0530     1.6450    -2.1680 hn         1 31Z       0.338500
     40 H6           3.6690    -0.4050     1.4190 h1         1 31Z       0.067700
     41 H7           3.6100     2.0210     1.7790 hc         1 31Z       0.054200
     42 H8           3.0260     2.2840     0.1360 hc         1 31Z       0.054200
     43 H9           1.5810     0.7330     2.3650 hc         1 31Z       0.049700
     44 H10          1.0810     2.2640     1.6540 hc         1 31Z       0.049700
     45 H11         -0.2450     0.3650     0.7560 h1         1 31Z       0.045200
     46 H12          0.6530     1.1740    -0.5350 h1         1 31Z       0.045200
     47 H14          2.7750     0.0200    -1.4560 h1         1 31Z       0.049200
     48 H15          3.2910    -1.5020    -0.7210 h1         1 31Z       0.049200
     49 H16          0.4650    -1.0220    -1.8880 h1         1 31Z       0.039700
     50 H17          1.1600    -2.4850    -1.2020 h1         1 31Z       0.039700
     51 H18          0.1110    -3.5310     0.8840 ha         1 31Z       0.111000
     52 H19         -2.0610    -4.2270     1.8500 ha         1 31Z       0.136000
     53 H20         -3.0480     0.4340     1.3530 ha         1 31Z       0.128000
     54 H21         -3.3740     2.8670     1.7290 ha         1 31Z       0.102000
     55 H22         -4.9950     4.1390     0.3220 ha         1 31Z       0.113000
     56 H23         -5.9570     0.5340    -1.8440 ha         1 31Z       0.141000
@<TRIPOS>BOND
     1     1     2 1   
     2     1    35 1   
     3     1    36 1   
     4     1    37 1   
     5     2     3 2   
     6     2     8 1   
     7     3     4 1   
     8     3    38 1   
     9     4     5 1   
    10     4    10 1   
    11     5     6 2   
    12     5     7 1   
    13     7     8 1   
    14     7    39 1   
    15     8     9 2   
    16    10    11 1   
    17    10    15 1   
    18    10    40 1   
    19    11    12 1   
    20    11    41 1   
    21    11    42 1   
    22    12    13 1   
    23    12    43 1   
    24    12    44 1   
    25    13    14 1   
    26    13    45 1   
    27    13    46 1   
    28    14    15 1   
    29    14    16 1   
    30    15    47 1   
    31    15    48 1   
    32    16    17 1   
    33    16    49 1   
    34    16    50 1   
    35    17    18 ar  
    36    17    22 ar  
    37    18    19 ar  
    38    18    51 1   
    39    19    20 ar  
    40    19    52 1   
    41    20    21 ar  
    42    20    32 1   
    43    21    22 ar  
    44    21    24 1   
    45    22    23 1   
    46    24    25 1   
    47    25    26 ar  
    48    25    30 ar  
    49    26    27 ar  
    50    26    53 1   
    51    27    28 ar  
    52    27    54 1   
    53    28    29 ar  
    54    28    55 1   
    55    29    30 ar  
    56    29    31 1   
    57    30    56 1   
    58    32    33 1   
    59    32    34 1   
@<TRIPOS>SUBSTRUCTURE
     1 31Z         1 TEMP              0 ****  ****    0 ROOT
