@<TRIPOS>MOLECULE
320
   47    50     1     0     0
SMALL
No Charge or Current Charge


@<TRIPOS>ATOM
      1 F31          8.6610     1.6400     2.2050 f          1 320      -0.177000
      2 C28          7.9410     0.8950     1.3370 ca         1 320       0.181000
      3 C29          6.9920    -0.0180     1.8210 ca         1 320      -0.149000
      4 C30          6.2420    -0.7940     0.9190 ca         1 320      -0.064500
      5 C27          8.1470     1.0390    -0.0430 ca         1 320      -0.149000
      6 C26          7.3980     0.2640    -0.9470 ca         1 320      -0.064500
      7 C23          6.4430    -0.6570    -0.4700 ca         1 320      -0.095300
      8 C22          5.6260    -1.4920    -1.4530 c3         1 320      -0.114100
      9 C21          4.3660    -0.7370    -1.8930 c          1 320       0.612100
     10 O25          4.4070     0.1530    -2.7300 o          1 320      -0.494100
     11 N20          3.2200    -1.1030    -1.2330 ns         1 320      -0.500500
     12 C19          1.9920    -0.4980    -1.2050 c          1 320       0.667100
     13 O24          1.7200     0.5000    -1.8550 o          1 320      -0.545100
     14 N18          1.1080    -1.1530    -0.3620 ns         1 320      -0.163000
     15 C14         -0.2440    -0.8940    -0.0090 ca         1 320       0.023000
     16 C15         -0.9730     0.2270    -0.4640 ca         1 320      -0.175000
     17 C16         -2.3070     0.4140    -0.0690 ca         1 320       0.199000
     18 F17         -2.9750     1.5070    -0.5050 f          1 320      -0.154000
     19 C13         -0.8760    -1.8120     0.8520 ca         1 320      -0.187000
     20 C12         -2.2130    -1.6270     1.2490 ca         1 320      -0.055000
     21 C11         -2.9370    -0.5190     0.7820 ca         1 320       0.019100
     22 O10         -4.2430    -0.3550     1.1890 os         1 320      -0.220200
     23 C6          -5.2880    -0.2420     0.2990 ca         1 320       0.216100
     24 C5          -5.2430    -0.7770    -1.0010 ca         1 320      -0.278000
     25 C4          -6.3660    -0.6230    -1.8380 ca         1 320       0.388900
     26 N3          -7.5010     0.0130    -1.4520 nb         1 320      -0.701000
     27 C2          -7.5270     0.5080    -0.2030 ca         1 320       0.387500
     28 C1          -6.4720     0.3970     0.6680 ca         1 320      -0.161800
     29 N9          -8.5320     1.1900     0.4590 na         1 320      -0.323400
     30 C8          -8.1540     1.5390     1.7770 cc         1 320      -0.170100
     31 C7          -6.8690     1.0400     1.8960 cd         1 320      -0.205200
     32 H29          6.8380    -0.1230     2.8920 ha         1 320       0.134000
     33 H30          5.5080    -1.4990     1.3010 ha         1 320       0.115500
     34 H27          8.8830     1.7490    -0.4100 ha         1 320       0.134000
     35 H26          7.5590     0.3810    -2.0170 ha         1 320       0.115500
     36 H22          6.2320    -1.7070    -2.3410 hc         1 320       0.066200
     37 H22A         5.3460    -2.4380    -0.9730 hc         1 320       0.066200
     38 HN20         3.3240    -1.8890    -0.6110 hn         1 320       0.310500
     39 HN18         1.4920    -1.9710     0.0910 hn         1 320       0.149000
     40 H15         -0.5290     0.9700    -1.1170 ha         1 320       0.173000
     41 H13         -0.3300    -2.6780     1.2180 ha         1 320       0.116000
     42 H12         -2.6890    -2.3440     1.9150 ha         1 320       0.135000
     43 H5          -4.3680    -1.3050    -1.3650 ha         1 320       0.130000
     44 H4          -6.3570    -1.0260    -2.8500 h4         1 320       0.017100
     45 HN9         -9.4240     1.4020     0.0290 hn         1 320       0.361000
     46 H8          -8.7930     2.0790     2.4740 h4         1 320       0.215000
     47 H7          -6.2520     1.1240     2.7900 ha         1 320       0.214000
@<TRIPOS>BOND
     1     1     2 1   
     2     2     3 ar  
     3     2     5 ar  
     4     3     4 ar  
     5     3    32 1   
     6     4     7 ar  
     7     4    33 1   
     8     5     6 ar  
     9     5    34 1   
    10     6     7 ar  
    11     6    35 1   
    12     7     8 1   
    13     8     9 1   
    14     8    36 1   
    15     8    37 1   
    16     9    10 2   
    17     9    11 1   
    18    11    12 1   
    19    11    38 1   
    20    12    13 2   
    21    12    14 1   
    22    14    15 1   
    23    14    39 1   
    24    15    16 ar  
    25    15    19 ar  
    26    16    17 ar  
    27    16    40 1   
    28    17    18 1   
    29    17    21 ar  
    30    19    20 ar  
    31    19    41 1   
    32    20    21 ar  
    33    20    42 1   
    34    21    22 1   
    35    22    23 1   
    36    23    24 ar  
    37    23    28 ar  
    38    24    25 ar  
    39    24    43 1   
    40    25    26 ar  
    41    25    44 1   
    42    26    27 ar  
    43    27    28 ar  
    44    27    29 1   
    45    28    31 1   
    46    29    30 1   
    47    29    45 1   
    48    30    31 2   
    49    30    46 1   
    50    31    47 1   
@<TRIPOS>SUBSTRUCTURE
     1 320         1 TEMP              0 ****  ****    0 ROOT
