@<TRIPOS>MOLECULE
320
   47    50     1     0     0
SMALL
bcc


@<TRIPOS>ATOM
      1 F31         10.3870     1.1830    -0.7820 f          1 320      -0.141900
      2 C28          9.1950     0.5960    -0.5880 ca         1 320       0.145900
      3 C29          8.7310     0.4310     0.7030 ca         1 320      -0.167000
      4 C30          7.4980    -0.1760     0.8900 ca         1 320      -0.082500
      5 C27          8.4720     0.1720    -1.6860 ca         1 320      -0.167000
      6 C26          7.2410    -0.4340    -1.4740 ca         1 320      -0.082500
      7 C23          6.7400    -0.6160    -0.1900 ca         1 320      -0.095300
      8 C22          5.4030    -1.2570     0.0250 c3         1 320      -0.114100
      9 C21          4.2700    -0.2460     0.0410 c          1 320       0.679100
     10 O25          4.4330     0.9400    -0.0990 o          1 320      -0.494100
     11 N20          3.0430    -0.8460     0.2310 ns         1 320      -0.634500
     12 C19          1.8130    -0.2030     0.3090 c          1 320       0.801100
     13 O24          1.6810     0.9990     0.2840 o          1 320      -0.545100
     14 N18          0.7860    -1.0940     0.4200 ns         1 320      -0.489100
     15 C14         -0.5720    -0.8230     0.5690 ca         1 320       0.115600
     16 C15         -1.1320     0.4520     0.4770 ca         1 320      -0.193000
     17 C16         -2.4960     0.5890     0.6330 ca         1 320       0.163900
     18 F17         -3.0360     1.8080     0.5420 f          1 320      -0.118900
     19 C13         -1.4070    -1.9170     0.8140 ca         1 320      -0.205000
     20 C12         -2.7720    -1.7500     0.9580 ca         1 320      -0.073000
     21 C11         -3.3330    -0.4870     0.8730 ca         1 320       0.019100
     22 O10         -4.6750    -0.2910     1.0650 os         1 320      -0.220200
     23 C6          -5.4700    -0.1330    -0.0180 ca         1 320       0.216100
     24 C5          -5.0650    -0.3000    -1.3330 ca         1 320      -0.361300
     25 C4          -5.9980    -0.1170    -2.3600 ca         1 320       0.454200
     26 N3          -7.2670     0.2090    -2.1840 nb         1 320      -0.701000
     27 C2          -7.6240     0.3590    -0.9140 ca         1 320       0.452800
     28 C1          -6.8000     0.2070     0.2210 ca         1 320      -0.227100
     29 N9          -8.8640     0.6940    -0.4680 na         1 320      -0.273100
     30 C8          -8.8530     0.7580     0.8980 cc         1 320      -0.120100
     31 C7          -7.6060     0.4670     1.3690 cd         1 320      -0.155200
     32 H29          9.3200     0.7670     1.5460 ha         1 320       0.152000
     33 H30          7.1280    -0.3130     1.8990 ha         1 320       0.133500
     34 H27          8.8590     0.3090    -2.6870 ha         1 320       0.152000
     35 H26          6.6700    -0.7720    -2.3300 ha         1 320       0.133500
     36 H22          5.1980    -1.9940    -0.7560 hc         1 320       0.066200
     37 H22A         5.3840    -1.8080     0.9700 hc         1 320       0.066200
     38 HN20         3.0580    -1.8520     0.3260 hn         1 320       0.310500
     39 HN18         1.0150    -2.0770     0.4140 hn         1 320       0.315500
     40 H15         -0.5360     1.3300     0.2880 ha         1 320       0.191000
     41 H13         -0.9860    -2.9120     0.8910 ha         1 320       0.134000
     42 H12         -3.4060    -2.6060     1.1480 ha         1 320       0.153000
     43 H5          -4.0520    -0.5750    -1.5920 ha         1 320       0.148000
     44 H4          -5.6710    -0.2500    -3.3850 h4         1 320       0.017100
     45 HN9         -9.6620     0.8730    -1.0550 hn         1 320       0.310700
     46 H8          -9.7490     1.0130     1.4400 h4         1 320       0.165000
     47 H7          -7.3080     0.4430     2.4040 ha         1 320       0.164000
@<TRIPOS>BOND
     1     1     2 1   
     2     2     3 ar  
     3     2     5 ar  
     4     3     4 ar  
     5     3    32 1   
     6     4     7 ar  
     7     4    33 1   
     8     5     6 ar  
     9     5    34 1   
    10     6     7 ar  
    11     6    35 1   
    12     7     8 1   
    13     8     9 1   
    14     8    36 1   
    15     8    37 1   
    16     9    10 2   
    17     9    11 1   
    18    11    12 1   
    19    11    38 1   
    20    12    13 2   
    21    12    14 1   
    22    14    15 1   
    23    14    39 1   
    24    15    16 ar  
    25    15    19 ar  
    26    16    17 ar  
    27    16    40 1   
    28    17    18 1   
    29    17    21 ar  
    30    19    20 ar  
    31    19    41 1   
    32    20    21 ar  
    33    20    42 1   
    34    21    22 1   
    35    22    23 1   
    36    23    24 ar  
    37    23    28 ar  
    38    24    25 ar  
    39    24    43 1   
    40    25    26 ar  
    41    25    44 1   
    42    26    27 ar  
    43    27    28 ar  
    44    27    29 1   
    45    28    31 1   
    46    29    30 1   
    47    29    45 1   
    48    30    31 2   
    49    30    46 1   
    50    31    47 1   
@<TRIPOS>SUBSTRUCTURE
     1 320         1 TEMP              0 ****  ****    0 ROOT
