@<TRIPOS>MOLECULE
321
   59    62     1     0     0
SMALL
No Charge or Current Charge


@<TRIPOS>ATOM
      1 O31          7.4300    -1.0210     2.0480 o          1 321      -0.523000
      2 S35          7.5920    -0.5960     0.6570 s6         1 321       1.191100
      3 O30          8.8140     0.0800     0.2200 o          1 321      -0.523000
      4 C19          7.2740    -1.9710    -0.4280 c3         1 321      -0.382100
      5 N26          6.3700     0.4850     0.3440 nu         1 321      -0.875100
      6 C8           4.9800     0.3150     0.3870 ca         1 321       0.226000
      7 C3           4.3540    -0.7020     1.1400 ca         1 321      -0.041000
      8 C5           4.1710     1.2070    -0.3450 ca         1 321      -0.038000
      9 C9           2.7650     1.0770    -0.3290 ca         1 321      -0.285500
     10 S34          1.7260     2.1690    -1.2700 sy         1 321       1.086500
     11 O28          2.4180     2.5250    -2.5140 o          1 321      -0.510500
     12 O29          1.2200     3.2110    -0.3690 o          1 321      -0.510500
     13 C11          0.3770     1.1010    -1.6640 c6         1 321      -0.410700
     14 C14         -0.1030     0.4170    -0.4180 ce         1 321       0.587600
     15 N24          0.7440    -0.0940     0.4400 nf         1 321      -0.553100
     16 C7           2.1520     0.0570     0.4090 ca         1 321       0.212400
     17 C2           2.9520    -0.8290     1.1460 ca         1 321      -0.074000
     18 C13         -1.5350     0.2240    -0.3730 cc         1 321      -0.325800
     19 C15         -2.4340     1.2020     0.0260 cd         1 321       0.129500
     20 O32         -1.9380     2.4100     0.3870 oh         1 321      -0.501100
     21 C16         -1.9930    -1.1190    -0.7600 c          1 321       0.568200
     22 O27         -1.2360    -2.0090    -1.1270 o          1 321      -0.519000
     23 N25         -3.3920    -1.2910    -0.6800 n          1 321      -0.121800
     24 C21         -3.9970    -2.5930    -1.0460 c3         1 321       0.110000
     25 C20         -4.2570    -3.5000     0.1800 c3         1 321      -0.095400
     26 C22         -4.9830    -4.8340    -0.1450 c3         1 321      -0.056700
     27 C18         -4.1710    -5.7410    -1.1010 c3         1 321      -0.089600
     28 C17         -5.3490    -5.5930     1.1500 c3         1 321      -0.089600
     29 N23         -4.3010    -0.3320    -0.2960 nc         1 321      -0.373300
     30 C12         -3.8750     0.8820     0.0490 cd         1 321       0.349200
     31 C10         -4.9060     1.8450     0.4370 cd         1 321      -0.278900
     32 C4          -6.2430     1.5020     0.4560 cc         1 321      -0.082000
     33 S33         -4.6910     3.5480     0.9180 ss         1 321       0.222000
     34 C6          -6.4390     3.7280     1.1330 cd         1 321      -0.226000
     35 C1          -7.0970     2.5610     0.8490 cc         1 321      -0.137000
     36 H19          6.3010    -2.3940    -0.1600 h1         1 321       0.105033
     37 H19A         7.2730    -1.5890    -1.4530 h1         1 321       0.105033
     38 H19B         8.0770    -2.6990    -0.2760 h1         1 321       0.105033
     39 HN26         6.7580     1.1690    -0.2930 hn         1 321       0.492000
     40 H3           4.9390    -1.3990     1.7300 ha         1 321       0.154000
     41 H5           4.6370     1.9980    -0.9270 ha         1 321       0.132000
     42 H11         -0.3970     1.7190    -2.1290 h1         1 321       0.125700
     43 H11A         0.7730     0.3700    -2.3760 h1         1 321       0.125700
     44 H2           2.4830    -1.6170     1.7290 ha         1 321       0.147000
     45 HO32        -2.6790     2.9580     0.7100 ho         1 321       0.494000
     46 H21         -4.9500    -2.4040    -1.5580 h1         1 321       0.072700
     47 H21A        -3.3480    -3.1100    -1.7640 h1         1 321       0.072700
     48 H20         -3.3010    -3.7160     0.6730 hc         1 321       0.056200
     49 H20A        -4.8610    -2.9370     0.9020 hc         1 321       0.056200
     50 H22         -5.9260    -4.5850    -0.6500 hc         1 321       0.043700
     51 H18         -4.6970    -6.6880    -1.2740 hc         1 321       0.035367
     52 H18A        -4.0270    -5.2630    -2.0770 hc         1 321       0.035367
     53 H18B        -3.1850    -5.9700    -0.6790 hc         1 321       0.035367
     54 H17         -5.9740    -4.9700     1.8020 hc         1 321       0.035367
     55 H17A        -5.9100    -6.5060     0.9200 hc         1 321       0.035367
     56 H17B        -4.4470    -5.8750     1.7060 hc         1 321       0.035367
     57 H4          -6.6470     0.5240     0.2030 ha         1 321       0.144000
     58 H6          -6.8550     4.6760     1.4520 h4         1 321       0.158000
     59 H1          -8.1750     2.4410     0.9120 ha         1 321       0.142000
@<TRIPOS>BOND
     1     1     2 2   
     2     2     3 2   
     3     2     4 1   
     4     2     5 1   
     5     4    36 1   
     6     4    37 1   
     7     4    38 1   
     8     5     6 1   
     9     5    39 1   
    10     6     7 ar  
    11     6     8 ar  
    12     7    17 ar  
    13     7    40 1   
    14     8     9 ar  
    15     8    41 1   
    16     9    10 1   
    17     9    16 ar  
    18    10    11 2   
    19    10    12 2   
    20    10    13 1   
    21    13    14 1   
    22    13    42 1   
    23    13    43 1   
    24    14    15 2   
    25    14    18 1   
    26    15    16 1   
    27    16    17 ar  
    28    17    44 1   
    29    18    19 2   
    30    18    21 1   
    31    19    20 1   
    32    19    30 1   
    33    20    45 1   
    34    21    22 2   
    35    21    23 1   
    36    23    24 1   
    37    23    29 1   
    38    24    25 1   
    39    24    46 1   
    40    24    47 1   
    41    25    26 1   
    42    25    48 1   
    43    25    49 1   
    44    26    27 1   
    45    26    28 1   
    46    26    50 1   
    47    27    51 1   
    48    27    52 1   
    49    27    53 1   
    50    28    54 1   
    51    28    55 1   
    52    28    56 1   
    53    29    30 2   
    54    30    31 1   
    55    31    32 2   
    56    31    33 1   
    57    32    35 1   
    58    32    57 1   
    59    33    34 1   
    60    34    35 2   
    61    34    58 1   
    62    35    59 1   
@<TRIPOS>SUBSTRUCTURE
     1 321         1 TEMP              0 ****  ****    0 ROOT
