@<TRIPOS>MOLECULE
321
   59    62     1     0     0
SMALL
abcg2


@<TRIPOS>ATOM
      1 O31          6.8070    -2.2530     0.4190 o          1 321      -0.523000
      2 S35          7.2540    -0.9130     0.0870 s6         1 321       1.191100
      3 O30          8.6010    -0.4940     0.4290 o          1 321      -0.523000
      4 C19          6.9820    -0.6430    -1.6470 c3         1 321      -0.382100
      5 N26          6.2450     0.1590     0.8760 nu         1 321      -0.875100
      6 C8           4.8450     0.0360     0.7660 ca         1 321       0.226000
      7 C3           4.1810    -1.0360     1.3600 ca         1 321      -0.041000
      8 C5           4.1130     1.0090     0.0940 ca         1 321      -0.038000
      9 C9           2.7380     0.8940     0.0290 ca         1 321      -0.285500
     10 S34          1.7830     2.1680    -0.7290 sy         1 321       1.086500
     11 O28          2.5390     2.7740    -1.8170 o          1 321      -0.510500
     12 O29          1.2440     3.0300     0.3150 o          1 321      -0.510500
     13 C11          0.4730     1.1480    -1.3690 c6         1 321      -0.410700
     14 C14         -0.0600     0.2540    -0.2780 ce         1 321       0.587600
     15 N24          0.6680    -0.3460     0.5730 nf         1 321      -0.553100
     16 C7           2.0500    -0.1800     0.6030 ca         1 321       0.212400
     17 C2           2.8050    -1.1410     1.2720 ca         1 321      -0.074000
     18 C13         -1.5110    -0.0070    -0.2750 cc         1 321      -0.325800
     19 C15         -2.4100     1.0010    -0.0870 cd         1 321       0.129500
     20 O32         -1.9640     2.2280     0.1360 oh         1 321      -0.501100
     21 C16         -1.9680    -1.3550    -0.5090 c          1 321       0.568200
     22 O27         -1.2430    -2.3220    -0.6790 o          1 321      -0.519000
     23 N25         -3.3510    -1.4840    -0.5720 n          1 321      -0.121800
     24 C21         -3.9460    -2.7990    -0.8070 c3         1 321       0.110000
     25 C20         -4.1790    -3.5590     0.4920 c3         1 321      -0.095400
     26 C22         -4.9500    -4.8650     0.2890 c3         1 321      -0.056700
     27 C18         -4.1850    -5.8580    -0.5810 c3         1 321      -0.089600
     28 C17         -5.2850    -5.4870     1.6410 c3         1 321      -0.089600
     29 N23         -4.2130    -0.5180    -0.3600 nc         1 321      -0.373300
     30 C12         -3.8100     0.6890    -0.1220 cd         1 321       0.349200
     31 C10         -4.8360     1.7200     0.0500 cd         1 321      -0.278900
     32 C4          -5.8420     2.0340    -0.8180 cc         1 321      -0.082000
     33 S33         -4.9370     2.6790     1.4860 ss         1 321       0.222000
     34 C6          -6.3130     3.5090     0.9010 cd         1 321      -0.226000
     35 C1          -6.6900     3.0610    -0.3270 cc         1 321      -0.137000
     36 H19          5.9410    -0.8490    -1.8870 h1         1 321       0.105033
     37 H19A         7.2340     0.3860    -1.8930 h1         1 321       0.105033
     38 H19B         7.6270    -1.3280    -2.1950 h1         1 321       0.105033
     39 HN26         6.5930     1.1110     0.8150 hn         1 321       0.492000
     40 H3           4.7370    -1.7790     1.9130 ha         1 321       0.154000
     41 H5           4.6200     1.8430    -0.3760 ha         1 321       0.132000
     42 H11         -0.2810     1.7960    -1.8120 h1         1 321       0.125700
     43 H11A         0.9050     0.5300    -2.1630 h1         1 321       0.125700
     44 H2           2.2920    -1.9710     1.7390 ha         1 321       0.147000
     45 HO32        -2.6690     2.8900     0.1130 ho         1 321       0.494000
     46 H21         -4.8890    -2.6230    -1.3230 h1         1 321       0.072700
     47 H21A        -3.2920    -3.3450    -1.4820 h1         1 321       0.072700
     48 H20         -3.2190    -3.7720     0.9730 hc         1 321       0.056200
     49 H20A        -4.7420    -2.9150     1.1740 hc         1 321       0.056200
     50 H22         -5.8940    -4.6220    -0.2140 hc         1 321       0.043700
     51 H18         -4.7440    -6.7890    -0.6900 hc         1 321       0.035367
     52 H18A        -3.9950    -5.4760    -1.5850 hc         1 321       0.035367
     53 H18B        -3.2200    -6.1030    -0.1300 hc         1 321       0.035367
     54 H17         -5.8510    -4.7970     2.2690 hc         1 321       0.035367
     55 H17A        -5.8800    -6.3940     1.5200 hc         1 321       0.035367
     56 H17B        -4.3750    -5.7600     2.1800 hc         1 321       0.035367
     57 H4          -5.9610     1.5560    -1.7790 ha         1 321       0.144000
     58 H6          -6.7730     4.2810     1.4990 h4         1 321       0.158000
     59 H1          -7.5370     3.4550    -0.8700 ha         1 321       0.142000
@<TRIPOS>BOND
     1     1     2 2   
     2     2     3 2   
     3     2     4 1   
     4     2     5 1   
     5     4    36 1   
     6     4    37 1   
     7     4    38 1   
     8     5     6 1   
     9     5    39 1   
    10     6     7 ar  
    11     6     8 ar  
    12     7    17 ar  
    13     7    40 1   
    14     8     9 ar  
    15     8    41 1   
    16     9    10 1   
    17     9    16 ar  
    18    10    11 2   
    19    10    12 2   
    20    10    13 1   
    21    13    14 1   
    22    13    42 1   
    23    13    43 1   
    24    14    15 2   
    25    14    18 1   
    26    15    16 1   
    27    16    17 ar  
    28    17    44 1   
    29    18    19 2   
    30    18    21 1   
    31    19    20 1   
    32    19    30 1   
    33    20    45 1   
    34    21    22 2   
    35    21    23 1   
    36    23    24 1   
    37    23    29 1   
    38    24    25 1   
    39    24    46 1   
    40    24    47 1   
    41    25    26 1   
    42    25    48 1   
    43    25    49 1   
    44    26    27 1   
    45    26    28 1   
    46    26    50 1   
    47    27    51 1   
    48    27    52 1   
    49    27    53 1   
    50    28    54 1   
    51    28    55 1   
    52    28    56 1   
    53    29    30 2   
    54    30    31 1   
    55    31    32 2   
    56    31    33 1   
    57    32    35 1   
    58    32    57 1   
    59    33    34 1   
    60    34    35 2   
    61    34    58 1   
    62    35    59 1   
@<TRIPOS>SUBSTRUCTURE
     1 321         1 TEMP              0 ****  ****    0 ROOT
