@<TRIPOS>MOLECULE
322
   36    37     1     0     0
SMALL
bcc


@<TRIPOS>ATOM
      1 C10         -5.3920     0.1380     1.1440 c          1 322       0.936600
      2 C8          -3.4130    -0.5120    -1.3400 cs         1 322       0.450000
      3 C9          -5.1510     0.8150    -0.2300 c3         1 322      -0.079000
      4 C4           0.7830    -1.4820     0.6950 ca         1 322      -0.146000
      5 C5           0.6970    -0.0940     0.5610 ca         1 322      -0.046300
      6 C6          -0.6350     0.5540     0.8200 c3         1 322      -0.017100
      7 C3           1.9540    -2.1640     0.4380 ca         1 322       0.067100
      8 C2           1.0010    -4.3150     0.8360 c3         1 322       0.144400
      9 C1           1.4490    -5.7550     0.8000 c3         1 322      -0.095100
     10 C7          -1.4050     0.8480    -0.4740 c5         1 322      -0.100600
     11 N1          -3.7900     0.6090    -0.6760 n          1 322      -0.368400
     12 S1          -1.6870    -0.6430    -1.4630 ss         1 322      -0.187700
     13 O1           2.1270    -3.4920     0.5390 os         1 322      -0.356900
     14 C11         -2.7800     1.3900    -0.1520 c          1 322       0.715500
     15 C12          1.8300     0.6010     0.1580 ca         1 322       0.001100
     16 C13          3.0260    -0.0800    -0.0990 ca         1 322      -0.029900
     17 C14          3.0990    -1.4580     0.0330 ca         1 322       0.135100
     18 O2          -4.4110    -0.3920     1.6870 o          1 322      -0.818300
     19 O3          -6.5620     0.2150     1.5550 o          1 322      -0.818300
     20 O4          -2.9690     2.3860     0.4970 o          1 322      -0.552500
     21 O5           4.2510    -2.0900    -0.2200 oh         1 322      -0.480100
     22 H9          -5.8270     0.4140    -0.9830 h1         1 322       0.067200
     23 H9A         -5.3350     1.8870    -0.1600 h1         1 322       0.067200
     24 H4          -0.1020    -2.0140     1.0170 ha         1 322       0.163000
     25 H6          -1.2400    -0.1100     1.4400 hc         1 322       0.089700
     26 H6A         -0.5270     1.4880     1.3730 hc         1 322       0.089700
     27 H2           0.2100    -4.1370     0.1000 h1         1 322       0.049700
     28 H2A          0.6040    -4.0570     1.8220 h1         1 322       0.049700
     29 H1           1.8190    -6.0330    -0.1860 hc         1 322       0.045700
     30 H1A          2.2290    -5.9490     1.5350 hc         1 322       0.045700
     31 H1B          0.6010    -6.3980     1.0350 hc         1 322       0.045700
     32 H7          -0.8780     1.5820    -1.0880 h1         1 322       0.105700
     33 HO5          4.1390    -3.0420    -0.0990 ho         1 322       0.444000
     34 BR1          1.7680     2.4730    -0.0350 br         1 322      -0.072100
     35 BR2          4.5830     0.8160    -0.6330 br         1 322      -0.063100
     36 S2          -4.4060    -1.6440    -1.9880 s          1 322      -0.478400
@<TRIPOS>BOND
     1     1     3 1   
     2     1    18 1   
     3     1    19 1   
     4     2    11 1   
     5     2    12 1   
     6     2    36 2   
     7     3    11 1   
     8     3    22 1   
     9     3    23 1   
    10     4     5 ar  
    11     4     7 ar  
    12     4    24 1   
    13     5     6 1   
    14     5    15 ar  
    15     6    10 1   
    16     6    25 1   
    17     6    26 1   
    18     7    13 1   
    19     7    17 ar  
    20     8     9 1   
    21     8    13 1   
    22     8    27 1   
    23     8    28 1   
    24     9    29 1   
    25     9    30 1   
    26     9    31 1   
    27    10    12 1   
    28    10    14 1   
    29    10    32 1   
    30    11    14 1   
    31    14    20 2   
    32    15    16 ar  
    33    15    34 1   
    34    16    17 ar  
    35    16    35 1   
    36    17    21 1   
    37    21    33 1   
@<TRIPOS>SUBSTRUCTURE
     1 322         1 TEMP              0 ****  ****    0 ROOT
