@<TRIPOS>MOLECULE
322
   36    37     1     0     0
SMALL
No Charge or Current Charge


@<TRIPOS>ATOM
      1 C10         -6.2150     0.6330     0.6750 c          1 322       0.726000
      2 C8          -3.6950    -0.3700    -1.2040 cs         1 322       0.383000
      3 C9          -5.2920     1.3620    -0.3230 c3         1 322      -0.079000
      4 C4           0.9420    -1.6640     0.7160 ca         1 322      -0.128000
      5 C5           0.7540    -0.2720     0.5870 ca         1 322      -0.046300
      6 C6          -0.5800     0.3340     1.0270 c3         1 322      -0.017100
      7 C3           2.1530    -2.2660     0.3140 ca         1 322       0.067100
      8 C2           1.3830    -4.5350     0.9330 c3         1 322       0.167600
      9 C1           1.9830    -5.9500     0.8900 c3         1 322      -0.095100
     10 C7          -1.5520     0.6080    -0.1500 c5         1 322      -0.052700
     11 N1          -3.9290     0.7670    -0.4640 n          1 322      -0.234400
     12 S1          -2.0320    -0.9440    -1.0270 ss         1 322      -0.235600
     13 O1           2.3760    -3.6290     0.4190 os         1 322      -0.380100
     14 C11         -2.8600     1.2920     0.2860 c          1 322       0.573000
     15 C12          1.7950     0.5240     0.0500 ca         1 322       0.001100
     16 C13          3.0100    -0.0760    -0.3510 ca         1 322      -0.029900
     17 C14          3.1830    -1.4680    -0.2170 ca         1 322       0.135100
     18 O2          -5.7110     0.0620     1.6320 o          1 322      -0.713000
     19 O3          -7.4180     0.6610     0.4630 o          1 322      -0.713000
     20 O4          -2.9740     2.1770     1.1260 o          1 322      -0.477000
     21 O5           4.3510    -2.0690    -0.6010 oh         1 322      -0.519100
     22 H9          -5.7850     1.3600    -1.3030 h1         1 322       0.067200
     23 H9A         -5.2160     2.4060     0.0000 h1         1 322       0.067200
     24 H4           0.1340    -2.2650     1.1240 ha         1 322       0.145000
     25 H6          -1.0710    -0.3300     1.7500 hc         1 322       0.089700
     26 H6A         -0.3990     1.2600     1.5870 hc         1 322       0.089700
     27 H2           0.4730    -4.5070     0.3200 h1         1 322       0.049700
     28 H2A          1.1200    -4.2820     1.9680 h1         1 322       0.049700
     29 H1           2.2410    -6.2290    -0.1380 hc         1 322       0.045700
     30 H1A          2.8880    -6.0040     1.5070 hc         1 322       0.045700
     31 H1B          1.2600    -6.6790     1.2740 hc         1 322       0.045700
     32 H7          -1.0770     1.2810    -0.8740 h1         1 322       0.105700
     33 HO5          4.2390    -3.0290    -0.4170 ho         1 322       0.483000
     34 Br1          1.5710     2.4310    -0.1430 br         1 322      -0.072100
     35 Br2          4.4370     0.9920    -1.0850 br         1 322      -0.063100
     36 S2          -4.8270    -1.2270    -2.0920 s          1 322      -0.478400
@<TRIPOS>BOND
     1     1     3 1   
     2     1    18 1   
     3     1    19 1   
     4     2    11 1   
     5     2    12 1   
     6     2    36 2   
     7     3    11 1   
     8     3    22 1   
     9     3    23 1   
    10     4     5 ar  
    11     4     7 ar  
    12     4    24 1   
    13     5     6 1   
    14     5    15 ar  
    15     6    10 1   
    16     6    25 1   
    17     6    26 1   
    18     7    13 1   
    19     7    17 ar  
    20     8     9 1   
    21     8    13 1   
    22     8    27 1   
    23     8    28 1   
    24     9    29 1   
    25     9    30 1   
    26     9    31 1   
    27    10    12 1   
    28    10    14 1   
    29    10    32 1   
    30    11    14 1   
    31    14    20 2   
    32    15    16 ar  
    33    15    34 1   
    34    16    17 ar  
    35    16    35 1   
    36    17    21 1   
    37    21    33 1   
@<TRIPOS>SUBSTRUCTURE
     1 322         1 TEMP              0 ****  ****    0 ROOT
