@<TRIPOS>MOLECULE
323
   53    56     1     0     0
SMALL
No Charge or Current Charge


@<TRIPOS>ATOM
      1 C1           0.0410    -0.1170     0.3460 cc         1 323       0.335000
      2 O1          -0.0450     2.6790     0.0250 os         1 323      -0.279000
      3 N1          -4.8280     2.6120    -0.0390 nh         1 323      -0.333700
      4 C10         -2.4230    -0.2110     0.3280 cd         1 323      -0.005700
      5 C11         -3.6030     0.5000     0.2280 cc         1 323      -0.381100
      6 C12         -3.6220     1.9260     0.0590 cc         1 323       0.436900
      7 C13         -2.3810     2.6330    -0.0040 cc         1 323      -0.425600
      8 C14          6.0440     2.5650    -0.3360 c3         1 323       0.206350
      9 C15          4.7520     4.4950     0.6670 c3         1 323       0.206350
     10 C16         -6.0770     1.9430    -0.4590 c3         1 323       0.058150
     11 C17         -4.9370     4.0530     0.2670 c3         1 323       0.058150
     12 C18          0.0610    -1.5720     0.5290 ca         1 323      -0.086000
     13 C19          0.2340    -2.0870     1.8290 ca         1 323      -0.131000
     14 O2           0.4210    -1.0600    -2.3800 o          1 323      -0.663000
     15 N2           4.7600     3.0920     0.1870 nh         1 323      -0.795400
     16 C2          -1.1880     0.5330     0.2540 cd         1 323      -0.219300
     17 C20          0.2380    -3.4710     2.0570 ca         1 323      -0.087000
     18 C21          0.0650    -4.3650     0.9860 ca         1 323      -0.200600
     19 C22         -0.1080    -3.8560    -0.3190 ca         1 323      -0.019000
     20 C23         -0.1040    -2.4650    -0.5620 ca         1 323      -0.127600
     21 C24         -0.2870    -1.9740    -1.9820 c          1 323       0.706600
     22 C25          0.0660    -5.8490     1.2400 c          1 323       0.581500
     23 O3          -1.1010    -2.5540    -2.6850 o          1 323      -0.663000
     24 C3          -1.1960     1.9570     0.0900 cd         1 323       0.287500
     25 O4          -0.0780    -6.6860     0.3550 o          1 323      -0.507100
     26 C4           1.1760     2.0780     0.1500 ca         1 323       0.287500
     27 C5           1.2620     0.6900     0.3130 ca         1 323      -0.207500
     28 C6           2.3260     2.8720     0.1100 ca         1 323      -0.271000
     29 C7           3.5950     2.2890     0.2280 ca         1 323       0.429000
     30 C8           3.6880     0.8960     0.3860 ca         1 323      -0.226500
     31 C9           2.5340     0.0970     0.4270 ca         1 323       0.050500
     32 H10         -2.4530    -1.2920     0.4630 ha         1 323       0.211500
     33 H11         -4.5440    -0.0340     0.2930 ha         1 323       0.197000
     34 H13         -2.3730     3.7070    -0.1410 ha         1 323       0.206000
     35 H114         6.6720     3.3800    -0.7230 h1         1 323       0.049783
     36 H214         6.5990     2.0450     0.4550 h1         1 323       0.049783
     37 H314         5.8680     1.8640    -1.1630 h1         1 323       0.049783
     38 H115         4.4270     5.1740    -0.1320 h1         1 323       0.049783
     39 H215         4.0730     4.6070     1.5240 h1         1 323       0.049783
     40 H315         5.7530     4.8010     0.9980 h1         1 323       0.049783
     41 H116        -6.5310     1.4190     0.3920 h1         1 323       0.049783
     42 H216        -6.8010     2.6720    -0.8450 h1         1 323       0.049783
     43 H316        -5.8740     1.2170    -1.2560 h1         1 323       0.049783
     44 H117        -4.3140     4.3100     1.1330 h1         1 323       0.049783
     45 H217        -4.6090     4.6490    -0.5950 h1         1 323       0.049783
     46 H317        -5.9730     4.3270     0.5050 h1         1 323       0.049783
     47 H19          0.3620    -1.4060     2.6680 ha         1 323       0.109000
     48 H20          0.3720    -3.8460     3.0710 ha         1 323       0.111000
     49 H22         -0.2390    -4.5430    -1.1550 ha         1 323       0.166000
     50 H25          0.2070    -6.1610     2.2990 h4         1 323      -0.019800
     51 H6           2.2210     3.9420    -0.0280 ha         1 323       0.138000
     52 H8           4.6580     0.4210     0.4890 ha         1 323       0.129000
     53 H9           2.6390    -0.9800     0.5480 ha         1 323       0.143500
@<TRIPOS>BOND
     1     1    12 1   
     2     1    16 2   
     3     1    27 1   
     4     2    24 1   
     5     2    26 1   
     6     3     6 2   
     7     3    10 1   
     8     3    11 1   
     9     4     5 2   
    10     4    16 1   
    11     4    32 1   
    12     5     6 1   
    13     5    33 1   
    14     6     7 1   
    15     7    24 2   
    16     7    34 1   
    17     8    15 1   
    18     8    35 1   
    19     8    36 1   
    20     8    37 1   
    21     9    15 1   
    22     9    38 1   
    23     9    39 1   
    24     9    40 1   
    25    10    41 1   
    26    10    42 1   
    27    10    43 1   
    28    11    44 1   
    29    11    45 1   
    30    11    46 1   
    31    12    13 ar  
    32    12    20 ar  
    33    13    17 ar  
    34    13    47 1   
    35    14    21 1   
    36    15    29 1   
    37    16    24 1   
    38    17    18 ar  
    39    17    48 1   
    40    18    19 ar  
    41    18    22 1   
    42    19    20 ar  
    43    19    49 1   
    44    20    21 1   
    45    21    23 1   
    46    22    25 2   
    47    22    50 1   
    48    26    27 ar  
    49    26    28 ar  
    50    27    31 ar  
    51    28    29 ar  
    52    28    51 1   
    53    29    30 ar  
    54    30    31 ar  
    55    30    52 1   
    56    31    53 1   
@<TRIPOS>SUBSTRUCTURE
     1 323         1 TEMP              0 ****  ****    0 ROOT
