@<TRIPOS>MOLECULE
323
   53    56     1     0     0
SMALL
abcg2


@<TRIPOS>ATOM
      1 C1           0.0110    -0.1500     0.1210 cc         1 323       0.335000
      2 O1          -0.0760     2.6270     0.0610 os         1 323      -0.279000
      3 N1          -4.7890     2.7030     0.1150 nh         1 323      -0.333700
      4 C10         -2.4740    -0.1170     0.1600 cd         1 323      -0.005700
      5 C11         -3.6400     0.5840     0.1550 cc         1 323      -0.381100
      6 C12         -3.6380     2.0130     0.1160 cc         1 323       0.436900
      7 C13         -2.3920     2.6710     0.0830 cc         1 323      -0.425600
      8 C14          5.9320     2.3920     0.3180 c3         1 323       0.206350
      9 C15          4.5110     4.4460     0.1820 c3         1 323       0.206350
     10 C16         -6.0640     2.0110     0.1630 c3         1 323       0.058150
     11 C17         -4.7700     4.1520     0.0920 c3         1 323       0.058150
     12 C18          0.0590    -1.6130     0.3560 ca         1 323      -0.086000
     13 C19          0.0790    -2.0460     1.6790 ca         1 323      -0.131000
     14 O2           0.0370    -0.7800    -2.2290 o          1 323      -0.663000
     15 N2           4.6200     3.0010     0.2180 nh         1 323      -0.795400
     16 C2          -1.2170     0.5270     0.1320 cd         1 323      -0.219300
     17 C20          0.1280    -3.4010     1.9580 ca         1 323      -0.087000
     18 C21          0.1550    -4.3250     0.9180 ca         1 323      -0.200600
     19 C22          0.1320    -3.8850    -0.4020 ca         1 323      -0.019000
     20 C23          0.0850    -2.5320    -0.6940 ca         1 323      -0.127600
     21 C24          0.0660    -2.0240    -2.1230 c          1 323       0.706600
     22 C25          0.2100    -5.7600     1.2450 c          1 323       0.581500
     23 O3           0.0800    -2.8650    -3.0330 o          1 323      -0.663000
     24 C3          -1.2290     1.9360     0.0900 cd         1 323       0.287500
     25 O4           0.2340    -6.6480     0.4260 o          1 323      -0.507100
     26 C4           1.1170     2.0110     0.1120 ca         1 323       0.287500
     27 C5           1.1940     0.6040     0.1550 ca         1 323      -0.207500
     28 C6           2.2310     2.8180     0.1290 ca         1 323      -0.271000
     29 C7           3.5140     2.2410     0.1920 ca         1 323       0.429000
     30 C8           3.6070     0.8150     0.2320 ca         1 323      -0.226500
     31 C9           2.4880     0.0410     0.2110 ca         1 323       0.050500
     32 H10         -2.5120    -1.1980     0.1860 ha         1 323       0.211500
     33 H11         -4.5710     0.0370     0.1790 ha         1 323       0.197000
     34 H13         -2.3200     3.7480     0.0570 ha         1 323       0.206000
     35 H114         6.6860     3.1720     0.3340 h1         1 323       0.049783
     36 H214         6.0360     1.8060     1.2340 h1         1 323       0.049783
     37 H314         6.1420     1.7420    -0.5330 h1         1 323       0.049783
     38 H115         4.0050     4.7860    -0.7240 h1         1 323       0.049783
     39 H215         3.9630     4.8310     1.0450 h1         1 323       0.049783
     40 H315         5.5040     4.8820     0.1940 h1         1 323       0.049783
     41 H116        -6.1700     1.4240     1.0770 h1         1 323       0.049783
     42 H216        -6.8660     2.7410     0.1380 h1         1 323       0.049783
     43 H316        -6.1920     1.3450    -0.6920 h1         1 323       0.049783
     44 H117        -4.2550     4.5600     0.9650 h1         1 323       0.049783
     45 H217        -4.2770     4.5320    -0.8060 h1         1 323       0.049783
     46 H317        -5.7890     4.5240     0.0990 h1         1 323       0.049783
     47 H19          0.0580    -1.3250     2.4860 ha         1 323       0.109000
     48 H20          0.1460    -3.7380     2.9880 ha         1 323       0.111000
     49 H22          0.1520    -4.6000    -1.2140 ha         1 323       0.166000
     50 H25          0.2300    -5.9840     2.3260 h4         1 323      -0.019800
     51 H6           2.0930     3.8900     0.1020 ha         1 323       0.138000
     52 H8           4.5710     0.3310     0.2790 ha         1 323       0.129000
     53 H9           2.5920    -1.0350     0.2380 ha         1 323       0.143500
@<TRIPOS>BOND
     1     1    12 1   
     2     1    16 2   
     3     1    27 1   
     4     2    24 1   
     5     2    26 1   
     6     3     6 2   
     7     3    10 1   
     8     3    11 1   
     9     4     5 2   
    10     4    16 1   
    11     4    32 1   
    12     5     6 1   
    13     5    33 1   
    14     6     7 1   
    15     7    24 2   
    16     7    34 1   
    17     8    15 1   
    18     8    35 1   
    19     8    36 1   
    20     8    37 1   
    21     9    15 1   
    22     9    38 1   
    23     9    39 1   
    24     9    40 1   
    25    10    41 1   
    26    10    42 1   
    27    10    43 1   
    28    11    44 1   
    29    11    45 1   
    30    11    46 1   
    31    12    13 ar  
    32    12    20 ar  
    33    13    17 ar  
    34    13    47 1   
    35    14    21 1   
    36    15    29 1   
    37    16    24 1   
    38    17    18 ar  
    39    17    48 1   
    40    18    19 ar  
    41    18    22 1   
    42    19    20 ar  
    43    19    49 1   
    44    20    21 1   
    45    21    23 1   
    46    22    25 2   
    47    22    50 1   
    48    26    27 ar  
    49    26    28 ar  
    50    27    31 ar  
    51    28    29 ar  
    52    28    51 1   
    53    29    30 ar  
    54    30    31 ar  
    55    30    52 1   
    56    31    53 1   
@<TRIPOS>SUBSTRUCTURE
     1 323         1 TEMP              0 ****  ****    0 ROOT
