@<TRIPOS>MOLECULE
324
   41    43     1     0     0
SMALL
abcg2


@<TRIPOS>ATOM
      1 O24         -5.4680    -0.7530     0.8750 o          1 324      -0.521500
      2 S22         -4.9560    -0.3820    -0.4330 s6         1 324       1.179100
      3 O23         -5.7820    -0.5730    -1.6130 o          1 324      -0.521500
      4 C25         -4.4230     1.3240    -0.3660 c3         1 324      -0.337400
      5 C26         -5.5900     2.2600    -0.0750 c3         1 324      -0.044400
      6 C27         -5.1220     3.7080    -0.0390 c3         1 324      -0.085100
      7 N21         -3.5870    -1.2990    -0.6930 nu         1 324      -0.879100
      8 C17         -2.6130    -1.3990     0.3210 ca         1 324       0.181000
      9 C18         -1.4200    -0.6920     0.2440 ca         1 324       0.186000
     10 F20         -1.2100     0.1110    -0.8030 f          1 324      -0.169000
     11 C16         -2.8070    -2.2280     1.4200 ca         1 324      -0.020000
     12 C15         -1.8510    -2.3320     2.4160 ca         1 324      -0.161000
     13 C14         -0.6830    -1.6080     2.2890 ca         1 324       0.232000
     14 F19          0.2610    -1.7080     3.2280 f          1 324      -0.154000
     15 C13         -0.4310    -0.7870     1.2030 ca         1 324      -0.243600
     16 C11          0.8390     0.0170     1.1120 c          1 324       0.641900
     17 O12          0.9630     1.0280     1.7740 o          1 324      -0.499100
     18 C9           1.8610    -0.4900     0.2370 cc         1 324      -0.240400
     19 C8           1.7960    -1.6510    -0.5120 cd         1 324      -0.073100
     20 C2           3.1510     0.0820    -0.0210 ca         1 324      -0.080800
     21 C1           3.8510     1.2080     0.3950 ca         1 324      -0.013000
     22 C3           3.7950    -0.7810    -0.9270 ca         1 324       0.351500
     23 N7           2.9390    -1.8180    -1.1980 na         1 324      -0.304400
     24 N4           5.0050    -0.6340    -1.4290 nb         1 324      -0.664000
     25 C5           5.6610     0.4410    -1.0260 ca         1 324       0.366900
     26 C6           5.1210     1.3680    -0.1280 ca         1 324       0.039000
     27 CL10         6.0780     2.7350     0.3250 cl         1 324      -0.182000
     28 H25         -3.6600     1.3920     0.4120 h1         1 324       0.096200
     29 H25A        -3.9620     1.5480    -1.3300 h1         1 324       0.096200
     30 H26         -6.3580     2.1400    -0.8410 hc         1 324       0.057700
     31 H26A        -6.0420     1.9950     0.8820 hc         1 324       0.057700
     32 H27         -4.3610     3.8620     0.7270 hc         1 324       0.038033
     33 H27A        -4.7000     4.0130    -0.9980 hc         1 324       0.038033
     34 H27B        -5.9560     4.3720     0.1840 hc         1 324       0.038033
     35 HN21        -3.2430    -1.2260    -1.6450 hn         1 324       0.500000
     36 H16         -3.7170    -2.8080     1.4870 ha         1 324       0.154000
     37 H15         -2.0040    -2.9790     3.2690 ha         1 324       0.150000
     38 H8           1.0010    -2.3750    -0.5910 h4         1 324       0.225000
     39 H1           3.4310     1.9210     1.0890 ha         1 324       0.157000
     40 H5           6.6590     0.5880    -1.4210 h4         1 324       0.038100
     41 H14          3.1390    -2.5920    -1.8140 hn         1 324       0.370000
@<TRIPOS>BOND
     1     1     2 2   
     2     2     3 2   
     3     2     4 1   
     4     2     7 1   
     5     4     5 1   
     6     4    28 1   
     7     4    29 1   
     8     5     6 1   
     9     5    30 1   
    10     5    31 1   
    11     6    32 1   
    12     6    33 1   
    13     6    34 1   
    14     7     8 1   
    15     7    35 1   
    16     8     9 ar  
    17     8    11 ar  
    18     9    10 1   
    19     9    15 ar  
    20    11    12 ar  
    21    11    36 1   
    22    12    13 ar  
    23    12    37 1   
    24    13    14 1   
    25    13    15 ar  
    26    15    16 1   
    27    16    17 2   
    28    16    18 1   
    29    18    19 2   
    30    18    20 1   
    31    19    23 1   
    32    19    38 1   
    33    20    21 ar  
    34    20    22 ar  
    35    21    26 ar  
    36    21    39 1   
    37    22    23 1   
    38    22    24 ar  
    39    23    41 1   
    40    24    25 ar  
    41    25    26 ar  
    42    25    40 1   
    43    26    27 1   
@<TRIPOS>SUBSTRUCTURE
     1 324         1 TEMP              0 ****  ****    0 ROOT
