@<TRIPOS>MOLECULE
324
   41    43     1     0     0
SMALL
No Charge or Current Charge


@<TRIPOS>ATOM
      1 O24         -5.3180    -1.3330    -0.4890 o          1 324      -0.521500
      2 S22         -4.6490    -0.1820    -1.0980 s6         1 324       1.179100
      3 O23         -4.8440     0.1290    -2.5150 o          1 324      -0.521500
      4 C25         -4.9690     1.2950    -0.1230 c3         1 324      -0.337400
      5 C26         -6.4510     1.7390    -0.1540 c3         1 324      -0.044400
      6 C27         -6.7000     3.0030     0.6890 c3         1 324      -0.085100
      7 N21         -3.0150    -0.4480    -0.9450 nu         1 324      -0.879100
      8 C17         -2.2220    -0.5680     0.2140 ca         1 324       0.181000
      9 C18         -0.8470    -0.2260     0.1600 ca         1 324       0.186000
     10 F20         -0.3310     0.2550    -0.9980 f          1 324      -0.169000
     11 C16         -2.7520    -1.0260     1.4410 ca         1 324      -0.020000
     12 C15         -1.9330    -1.1170     2.5800 ca         1 324      -0.161000
     13 C14         -0.5790    -0.7650     2.5090 ca         1 324       0.232000
     14 F19          0.1880    -0.8800     3.6150 f          1 324      -0.154000
     15 C13         -0.0190    -0.3350     1.2960 ca         1 324      -0.243600
     16 C11          1.4270     0.0450     1.2400 c          1 324       0.641900
     17 O12          1.8700     0.9130     1.9790 o          1 324      -0.499100
     18 C9           2.2590    -0.6310     0.2060 cc         1 324      -0.240400
     19 C8           1.8890    -1.7570    -0.5210 cd         1 324      -0.073100
     20 C2           3.6230    -0.3470    -0.1600 ca         1 324      -0.080800
     21 C1           4.4910     0.6670     0.2780 ca         1 324      -0.013000
     22 C3           4.0200    -1.2760    -1.0990 ca         1 324       0.351500
     23 N7           2.9760    -2.1450    -1.3420 na         1 324      -0.304400
     24 N4           5.2500    -1.2830    -1.6500 nb         1 324      -0.664000
     25 C5           6.1140    -0.3120    -1.2420 ca         1 324       0.366900
     26 C6           5.7780     0.6770    -0.2870 ca         1 324       0.039000
     27 Cl10         6.9480     1.9050     0.1920 cl         1 324      -0.182000
     28 H25         -4.6580     1.0640     0.9010 h1         1 324       0.096200
     29 H25A        -4.3210     2.0780    -0.5320 h1         1 324       0.096200
     30 H26         -6.7580     1.9360    -1.1890 hc         1 324       0.057700
     31 H26A        -7.0890     0.9290     0.2230 hc         1 324       0.057700
     32 H27         -6.4350     2.8280     1.7390 hc         1 324       0.038033
     33 H27A        -6.1010     3.8430     0.3160 hc         1 324       0.038033
     34 H27B        -7.7580     3.2900     0.6460 hc         1 324       0.038033
     35 HN21        -2.5940    -0.0270    -1.7650 hn         1 324       0.500000
     36 H16         -3.7940    -1.3150     1.5250 ha         1 324       0.154000
     37 H15         -2.3490    -1.4660     3.5220 ha         1 324       0.150000
     38 H8           0.9540    -2.3160    -0.5100 h4         1 324       0.225000
     39 H1           4.1940     1.4110     1.0110 ha         1 324       0.157000
     40 H5           7.1040    -0.3270    -1.6940 h4         1 324       0.038100
     41 H14          3.0060    -2.9280    -1.9830 hn         1 324       0.370000
@<TRIPOS>BOND
     1     1     2 2   
     2     2     3 2   
     3     2     4 1   
     4     2     7 1   
     5     4     5 1   
     6     4    28 1   
     7     4    29 1   
     8     5     6 1   
     9     5    30 1   
    10     5    31 1   
    11     6    32 1   
    12     6    33 1   
    13     6    34 1   
    14     7     8 1   
    15     7    35 1   
    16     8     9 ar  
    17     8    11 ar  
    18     9    10 1   
    19     9    15 ar  
    20    11    12 ar  
    21    11    36 1   
    22    12    13 ar  
    23    12    37 1   
    24    13    14 1   
    25    13    15 ar  
    26    15    16 1   
    27    16    17 2   
    28    16    18 1   
    29    18    19 2   
    30    18    20 1   
    31    19    23 1   
    32    19    38 1   
    33    20    21 ar  
    34    20    22 ar  
    35    21    26 ar  
    36    21    39 1   
    37    22    23 1   
    38    22    24 ar  
    39    23    41 1   
    40    24    25 ar  
    41    25    26 ar  
    42    25    40 1   
    43    26    27 1   
@<TRIPOS>SUBSTRUCTURE
     1 324         1 TEMP              0 ****  ****    0 ROOT
