@<TRIPOS>MOLECULE
325
   47    50     1     0     0
SMALL
abcg2


@<TRIPOS>ATOM
      1 O30         -1.9020    50.1610    22.0070 o          1 325      -0.505100
      2 C16         -1.4130    50.7830    21.0700 c          1 325       0.636900
      3 C17          0.0610    51.1230    21.1080 ca         1 325      -0.212600
      4 C22          1.0070    50.1290    20.9190 ca         1 325       0.178000
      5 F28          0.5800    48.8750    20.6520 f          1 325      -0.167000
      6 C21          2.3800    50.3560    20.9760 ca         1 325       0.213000
      7 N23          3.2640    49.2730    20.7670 nu         1 325      -0.870100
      8 S24          4.5450    49.3650    19.7050 s6         1 325       1.204100
      9 C26          3.8750    49.9260    18.1450 c3         1 325      -0.346400
     10 C31          2.8600    48.9700    17.5380 c3         1 325      -0.068100
     11 O27          5.0140    48.0060    19.5830 o          1 325      -0.526000
     12 O25          5.4490    50.3800    20.1900 o          1 325      -0.526000
     13 C20          2.8120    51.6520    21.2550 ca         1 325      -0.078000
     14 C19          1.8960    52.6800    21.4370 ca         1 325      -0.141000
     15 C18          0.5460    52.3990    21.3570 ca         1 325       0.197000
     16 F29         -0.3450    53.4000    21.5450 f          1 325      -0.164000
     17 C13         -2.1590    51.1860    19.9090 cc         1 325      -0.236400
     18 C11         -3.5490    50.9160    19.6200 ca         1 325      -0.083800
     19 C12         -4.5950    50.2520    20.2460 ca         1 325      -0.013000
     20 C10         -3.8160    51.4990    18.3590 ca         1 325       0.356500
     21 N15         -2.6470    52.0880    17.9120 na         1 325      -0.315400
     22 C14         -1.6650    51.8980    18.8220 cd         1 325      -0.072100
     23 N9          -4.9700    51.4760    17.7120 nb         1 325      -0.669000
     24 C8          -5.9560    50.8290    18.3360 ca         1 325       0.364900
     25 C7          -5.8280    50.2040    19.5920 cp         1 325      -0.100000
     26 C6          -6.9780    49.4940    20.1880 cp         1 325      -0.083000
     27 C5          -8.2810    49.9870    20.0670 ca         1 325       0.342900
     28 N4          -9.3570    49.3840    20.5740 nb         1 325      -0.663000
     29 C3          -9.1750    48.2430    21.2460 ca         1 325       0.336900
     30 C2          -7.9240    47.6710    21.4360 ca         1 325      -0.160000
     31 C1          -6.8140    48.3020    20.8980 ca         1 325      -0.062000
     32 HN23         2.8120    48.3680    20.7000 hn         1 325       0.507000
     33 H26          3.4550    50.9130    18.3430 h1         1 325       0.101200
     34 H26A         4.7570    50.0510    17.5140 h1         1 325       0.101200
     35 H31          2.5310    49.3730    16.5800 hc         1 325       0.050700
     36 H31A         3.2990    47.9880    17.3660 hc         1 325       0.050700
     37 H31B         1.9820    48.8560    18.1740 hc         1 325       0.050700
     38 H20          3.8700    51.8540    21.3230 ha         1 325       0.161000
     39 H19          2.2250    53.6870    21.6490 ha         1 325       0.149000
     40 H12         -4.4620    49.7960    21.2170 ha         1 325       0.145000
     41 H14         -0.6720    52.2770    18.6470 h4         1 325       0.222000
     42 H8          -6.9000    50.7800    17.8080 h4         1 325       0.028100
     43 H5          -8.4590    50.9230    19.5480 h4         1 325       0.020100
     44 H3         -10.0650    47.7690    21.6460 h4         1 325       0.022100
     45 H2          -7.8250    46.7440    21.9860 ha         1 325       0.126000
     46 H1          -5.8290    47.8670    21.0110 ha         1 325       0.124000
     47 H16         -2.5430    52.5770    17.0350 hn         1 325       0.369000
@<TRIPOS>BOND
     1     1     2 2   
     2     2     3 1   
     3     2    17 1   
     4     3     4 ar  
     5     3    15 ar  
     6     4     5 1   
     7     4     6 ar  
     8     6     7 1   
     9     6    13 ar  
    10     7     8 1   
    11     7    32 1   
    12     8     9 1   
    13     8    11 2   
    14     8    12 2   
    15     9    10 1   
    16     9    33 1   
    17     9    34 1   
    18    10    35 1   
    19    10    36 1   
    20    10    37 1   
    21    13    14 ar  
    22    13    38 1   
    23    14    15 ar  
    24    14    39 1   
    25    15    16 1   
    26    17    18 1   
    27    17    22 2   
    28    18    19 ar  
    29    18    20 ar  
    30    19    25 ar  
    31    19    40 1   
    32    20    21 1   
    33    20    23 ar  
    34    21    22 1   
    35    21    47 1   
    36    22    41 1   
    37    23    24 ar  
    38    24    25 ar  
    39    24    42 1   
    40    25    26 1   
    41    26    27 ar  
    42    26    31 ar  
    43    27    28 ar  
    44    27    43 1   
    45    28    29 ar  
    46    29    30 ar  
    47    29    44 1   
    48    30    31 ar  
    49    30    45 1   
    50    31    46 1   
@<TRIPOS>SUBSTRUCTURE
     1 325         1 TEMP              0 ****  ****    0 ROOT
