@<TRIPOS>MOLECULE
325
   47    50     1     0     0
SMALL
No Charge or Current Charge


@<TRIPOS>ATOM
      1 O30         -1.9560    49.4860    21.4160 o          1 325      -0.505100
      2 C16         -1.4930    50.3290    20.6590 c          1 325       0.636900
      3 C17         -0.0660    50.7630    20.7860 ca         1 325      -0.212600
      4 C22          0.9690    49.8110    20.7100 ca         1 325       0.178000
      5 F28          0.6620    48.5110    20.4740 f          1 325      -0.167000
      6 C21          2.3300    50.1910    20.8330 ca         1 325       0.213000
      7 N23          3.3380    49.2160    20.7300 nu         1 325      -0.870100
      8 S24          4.8540    49.3480    20.0650 s6         1 325       1.204100
      9 C26          4.5920    50.0570    18.4310 c3         1 325      -0.346400
     10 C31          3.6580    49.2250    17.5160 c3         1 325      -0.068100
     11 O27          5.3170    47.9670    19.9190 o          1 325      -0.526000
     12 O25          5.5960    50.2950    20.8990 o          1 325      -0.526000
     13 C20          2.6320    51.5490    21.0620 ca         1 325      -0.078000
     14 C19          1.6010    52.5010    21.1590 ca         1 325      -0.141000
     15 C18          0.2620    52.1100    21.0230 ca         1 325       0.197000
     16 F29         -0.7080    53.0400    21.1660 f          1 325      -0.164000
     17 C13         -2.3140    51.0210    19.6270 cc         1 325      -0.236400
     18 C11         -3.7330    50.9110    19.3990 ca         1 325      -0.083800
     19 C12         -4.7190    50.2190    20.1160 ca         1 325      -0.013000
     20 C10         -4.0490    51.6550    18.2850 ca         1 325       0.356500
     21 N15         -2.8990    52.2290    17.7840 na         1 325      -0.315400
     22 C14         -1.8190    51.8230    18.6050 cd         1 325      -0.072100
     23 N9          -5.3030    51.7650    17.8110 nb         1 325      -0.669000
     24 C8          -6.2780    51.1020    18.4850 ca         1 325       0.364900
     25 C7          -6.0560    50.3080    19.6490 cp         1 325      -0.100000
     26 C6          -7.1830    49.6040    20.3470 cp         1 325      -0.083000
     27 C5          -8.5110    50.1120    20.3180 ca         1 325       0.342900
     28 N4          -9.5660    49.5220    20.9280 nb         1 325      -0.663000
     29 C3          -9.3390    48.3740    21.6070 ca         1 325       0.336900
     30 C2          -8.0690    47.7840    21.6990 ca         1 325      -0.160000
     31 C1          -6.9770    48.4000    21.0650 ca         1 325      -0.062000
     32 HN23         3.0470    48.2710    20.5120 hn         1 325       0.507000
     33 H26          4.1800    51.0590    18.5940 h1         1 325       0.101200
     34 H26A         5.5870    50.1480    17.9820 h1         1 325       0.101200
     35 H31          3.5640    49.7040    16.5340 hc         1 325       0.050700
     36 H31A         4.0550    48.2140    17.3620 hc         1 325       0.050700
     37 H31B         2.6520    49.1410    17.9450 hc         1 325       0.050700
     38 H20          3.6590    51.8770    21.1840 ha         1 325       0.161000
     39 H19          1.8400    53.5440    21.3500 ha         1 325       0.149000
     40 H12         -4.4700    49.6510    21.0080 ha         1 325       0.145000
     41 H14         -0.7940    52.1220    18.3890 h4         1 325       0.222000
     42 H8          -7.2800    51.2020    18.0700 h4         1 325       0.028100
     43 H5          -8.7350    51.0400    19.7920 h4         1 325       0.020100
     44 H3         -10.2020    47.9150    22.0890 h4         1 325       0.022100
     45 H2          -7.9400    46.8590    22.2530 ha         1 325       0.126000
     46 H1          -5.9940    47.9390    21.1210 ha         1 325       0.124000
     47 H16         -2.8510    52.8170    16.9610 hn         1 325       0.369000
@<TRIPOS>BOND
     1     1     2 2   
     2     2     3 1   
     3     2    17 1   
     4     3     4 ar  
     5     3    15 ar  
     6     4     5 1   
     7     4     6 ar  
     8     6     7 1   
     9     6    13 ar  
    10     7     8 1   
    11     7    32 1   
    12     8     9 1   
    13     8    11 2   
    14     8    12 2   
    15     9    10 1   
    16     9    33 1   
    17     9    34 1   
    18    10    35 1   
    19    10    36 1   
    20    10    37 1   
    21    13    14 ar  
    22    13    38 1   
    23    14    15 ar  
    24    14    39 1   
    25    15    16 1   
    26    17    18 1   
    27    17    22 2   
    28    18    19 ar  
    29    18    20 ar  
    30    19    25 ar  
    31    19    40 1   
    32    20    21 1   
    33    20    23 ar  
    34    21    22 1   
    35    21    47 1   
    36    22    41 1   
    37    23    24 ar  
    38    24    25 ar  
    39    24    42 1   
    40    25    26 1   
    41    26    27 ar  
    42    26    31 ar  
    43    27    28 ar  
    44    27    43 1   
    45    28    29 ar  
    46    29    30 ar  
    47    29    44 1   
    48    30    31 ar  
    49    30    45 1   
    50    31    46 1   
@<TRIPOS>SUBSTRUCTURE
     1 325         1 TEMP              0 ****  ****    0 ROOT
