@<TRIPOS>MOLECULE
326
   46    48     1     0     0
SMALL
No Charge or Current Charge


@<TRIPOS>ATOM
      1 C1           0.5280    -0.9500     5.3250 ca         1 326      -0.030000
      2 C2           0.0810     0.2470     5.9230 ca         1 326      -0.231500
      3 C3           0.0470     1.4270     5.1520 ca         1 326      -0.030000
      4 C4           0.4400     1.4040     3.8050 ca         1 326      -0.123000
      5 C5           0.8770     0.2070     3.2050 ca         1 326       0.052800
      6 C6           0.9260    -0.9820     3.9730 ca         1 326      -0.096300
      7 S7          -0.4250     0.2700     7.7080 s6         1 326       1.274100
      8 O8          -0.9980    -1.0730     7.8860 o          1 326      -0.706867
      9 O9          -1.3730     1.3940     7.7520 o          1 326      -0.706867
     10 O10          0.8690     0.5010     8.3680 o          1 326      -0.706867
     11 N11          1.2600     0.2210     1.8620 na         1 326       0.157000
     12 N12          2.5290     0.6260     1.5040 nc         1 326      -0.561800
     13 C13          2.4790     0.4790     0.1860 cd         1 326       0.317300
     14 C14          1.2220     0.0030    -0.2910 cd         1 326      -0.168600
     15 C15          0.4350    -0.1650     0.8120 cc         1 326       0.200100
     16 C17          1.4070    -2.2970     3.3620 c3         1 326      -0.033800
     17 O17         -0.8340    -0.6100     0.9500 oh         1 326      -0.554100
     18 N19          0.0350     0.5460    -2.0790 ne         1 326      -0.256400
     19 N20          0.8890    -0.2570    -1.6050 nf         1 326      -0.157400
     20 C21          3.6820     0.8040    -0.6600 c3         1 326      -0.109400
     21 O22         -3.8170    -0.6580    -2.2820 o          1 326      -0.722500
     22 C24         -1.7700    -0.4580    -3.4290 ca         1 326      -0.086600
     23 C25         -0.5080     0.1830    -3.3280 ca         1 326       0.077400
     24 O26         -2.0500    -1.2290    -1.2010 o          1 326      -0.722500
     25 C27         -2.2670    -0.7780    -4.7140 ca         1 326      -0.136000
     26 C28         -1.5330    -0.4730    -5.8720 ca         1 326      -0.042000
     27 C29         -0.2850     0.1720    -5.7760 ca         1 326      -0.256500
     28 C30          0.2180     0.4910    -4.4970 ca         1 326      -0.030000
     29 S31          0.6960     0.5720    -7.2970 s6         1 326       1.279100
     30 O32          1.4490     1.7640    -6.8780 o          1 326      -0.715867
     31 O33         -0.3570     0.7870    -8.3020 o          1 326      -0.715867
     32 O34          1.4880    -0.6570    -7.4570 o          1 326      -0.715867
     33 H1           0.5700    -1.8620     5.9170 ha         1 326       0.115000
     34 H3          -0.2820     2.3650     5.5950 ha         1 326       0.125000
     35 H4           0.4080     2.3210     3.2210 ha         1 326       0.116000
     36 H171         0.7240    -2.6380     2.5750 hc         1 326       0.034367
     37 H172         2.4040    -2.1860     2.9190 hc         1 326       0.034367
     38 H173         1.4700    -3.0960     4.1110 hc         1 326       0.034367
     39 H17         -1.1920    -0.8260     0.0280 ho         1 326       0.609000
     40 H211         4.0600    -0.0960    -1.1580 hc         1 326       0.036700
     41 H212         3.4240     1.5340    -1.4360 hc         1 326       0.036700
     42 H213         4.4990     1.2250    -0.0630 hc         1 326       0.036700
     43 H27         -3.2300    -1.2730    -4.8150 ha         1 326       0.110000
     44 H28         -1.9400    -0.7400    -6.8460 ha         1 326       0.102000
     45 H30          1.1840     0.9820    -4.4020 ha         1 326       0.134000
     46 C23         -2.6040    -0.7950    -2.2060 c          1 326       0.735600
@<TRIPOS>BOND
     1     1     2 ar  
     2     1     6 ar  
     3     1    33 1   
     4     2     3 ar  
     5     2     7 1   
     6     3     4 ar  
     7     3    34 1   
     8     4     5 ar  
     9     4    35 1   
    10     5     6 ar  
    11     5    11 1   
    12     6    16 1   
    13     7     8 1   
    14     7     9 1   
    15     7    10 1   
    16    11    12 1   
    17    11    15 1   
    18    12    13 2   
    19    13    14 1   
    20    13    20 1   
    21    14    15 2   
    22    14    19 1   
    23    15    17 1   
    24    16    36 1   
    25    16    37 1   
    26    16    38 1   
    27    17    39 1   
    28    18    19 2   
    29    18    23 1   
    30    20    40 1   
    31    20    41 1   
    32    20    42 1   
    33    21    46 1   
    34    22    23 ar  
    35    22    25 ar  
    36    22    46 1   
    37    23    28 ar  
    38    24    46 1   
    39    25    26 ar  
    40    25    43 1   
    41    26    27 ar  
    42    26    44 1   
    43    27    28 ar  
    44    27    29 1   
    45    28    45 1   
    46    29    30 1   
    47    29    31 1   
    48    29    32 1   
@<TRIPOS>SUBSTRUCTURE
     1 326         1 TEMP              0 ****  ****    0 ROOT
