@<TRIPOS>MOLECULE
326
   46    48     1     0     0
SMALL
abcg2


@<TRIPOS>ATOM
      1 C1           0.8160    -0.9710     5.2150 ca         1 326      -0.030000
      2 C2          -0.0780    -0.0460     5.7380 ca         1 326      -0.231500
      3 C3          -0.5580     0.9860     4.9470 ca         1 326      -0.030000
      4 C4          -0.1230     1.0910     3.6360 ca         1 326      -0.123000
      5 C5           0.7770     0.1700     3.1220 ca         1 326       0.052800
      6 C6           1.2550    -0.8900     3.8980 ca         1 326      -0.096300
      7 S7          -0.5310    -0.1580     7.4690 s6         1 326       1.274100
      8 O8          -0.6750    -1.5970     7.7430 o          1 326      -0.706867
      9 O9          -1.7880     0.5970     7.6050 o          1 326      -0.706867
     10 O10          0.6010     0.4610     8.1800 o          1 326      -0.706867
     11 N11          1.2130     0.3070     1.7850 na         1 326       0.157000
     12 N12          2.5270     0.5510     1.5110 nc         1 326      -0.561800
     13 C13          2.6220     0.5930     0.2070 cd         1 326       0.317300
     14 C14          1.3590     0.3820    -0.3970 cd         1 326      -0.168600
     15 C15          0.4670     0.1970     0.6720 cc         1 326       0.200100
     16 C17          2.2000    -1.9160     3.3490 c3         1 326      -0.033800
     17 O17         -0.8030    -0.0800     0.7440 oh         1 326      -0.554100
     18 N19         -0.1590     0.2330    -1.9200 ne         1 326      -0.256400
     19 N20          1.0730     0.3200    -1.7320 nf         1 326      -0.157400
     20 C21          3.9130     0.8490    -0.4830 c3         1 326      -0.109400
     21 O22         -4.1680     0.3080    -2.5000 o          1 326      -0.722500
     22 C24         -2.0150    -0.0510    -3.3590 ca         1 326      -0.086600
     23 C25         -0.6240     0.0670    -3.2200 ca         1 326       0.077400
     24 O26         -2.6330    -0.3380    -1.0430 o          1 326      -0.722500
     25 C27         -2.5250    -0.2070    -4.6490 ca         1 326      -0.136000
     26 C28         -1.7000    -0.2710    -5.7560 ca         1 326      -0.042000
     27 C29         -0.3210    -0.1490    -5.5970 ca         1 326      -0.256500
     28 C30          0.2150     0.0260    -4.3380 ca         1 326      -0.030000
     29 S31          0.7540    -0.3070    -7.0210 s6         1 326       1.279100
     30 O32          2.0090     0.3730    -6.6570 o          1 326      -0.715867
     31 O33          0.0370     0.3420    -8.1310 o          1 326      -0.715867
     32 O34          0.9100    -1.7610    -7.2020 o          1 326      -0.715867
     33 H1           1.1710    -1.7880     5.8300 ha         1 326       0.115000
     34 H3          -1.2620     1.7060     5.3410 ha         1 326       0.125000
     35 H4          -0.4780     1.9030     3.0140 ha         1 326       0.116000
     36 H171         1.8730    -2.2880     2.3780 hc         1 326       0.034367
     37 H172         3.1990    -1.5040     3.2130 hc         1 326       0.034367
     38 H173         2.2770    -2.7640     4.0260 hc         1 326       0.034367
     39 H17         -1.2830    -0.1340    -0.1480 ho         1 326       0.609000
     40 H211         4.1150     0.0800    -1.2290 hc         1 326       0.036700
     41 H212         3.8960     1.8070    -1.0050 hc         1 326       0.036700
     42 H213         4.7350     0.8640     0.2300 hc         1 326       0.036700
     43 H27         -3.5950    -0.2850    -4.7840 ha         1 326       0.110000
     44 H28         -2.1300    -0.4020    -6.7400 ha         1 326       0.102000
     45 H30          1.2820     0.1350    -4.2030 ha         1 326       0.134000
     46 C23         -3.0110    -0.0160    -2.1960 c          1 326       0.735600
@<TRIPOS>BOND
     1     1     2 ar  
     2     1     6 ar  
     3     1    33 1   
     4     2     3 ar  
     5     2     7 1   
     6     3     4 ar  
     7     3    34 1   
     8     4     5 ar  
     9     4    35 1   
    10     5     6 ar  
    11     5    11 1   
    12     6    16 1   
    13     7     8 1   
    14     7     9 1   
    15     7    10 1   
    16    11    12 1   
    17    11    15 1   
    18    12    13 2   
    19    13    14 1   
    20    13    20 1   
    21    14    15 2   
    22    14    19 1   
    23    15    17 1   
    24    16    36 1   
    25    16    37 1   
    26    16    38 1   
    27    17    39 1   
    28    18    19 2   
    29    18    23 1   
    30    20    40 1   
    31    20    41 1   
    32    20    42 1   
    33    21    46 1   
    34    22    23 ar  
    35    22    25 ar  
    36    22    46 1   
    37    23    28 ar  
    38    24    46 1   
    39    25    26 ar  
    40    25    43 1   
    41    26    27 ar  
    42    26    44 1   
    43    27    28 ar  
    44    27    29 1   
    45    28    45 1   
    46    29    30 1   
    47    29    31 1   
    48    29    32 1   
@<TRIPOS>SUBSTRUCTURE
     1 326         1 TEMP              0 ****  ****    0 ROOT
