@<TRIPOS>MOLECULE
328
   45    47     1     0     0
SMALL
abcg2


@<TRIPOS>ATOM
      1 C1          -4.1890     0.5580     0.9960 ca         1 328      -0.082000
      2 C2          -5.4330    -0.0350     1.1230 ca         1 328      -0.079000
      3 C3          -6.0480    -0.5830    -0.0020 ca         1 328      -0.002000
      4 C7          -7.3280    -1.2030     0.1240 cg         1 328       0.318000
      5 C9           7.5650     1.0450     1.2560 c3         1 328       0.149900
      6 C10          0.0020     1.8000     0.2710 c6         1 328       0.096000
      7 C12         -1.0750    -0.2420     1.0210 c6         1 328       0.096000
      8 C13         -0.0230    -1.0900     0.3140 c6         1 328      -0.122900
      9 C14          1.3000    -0.3410     0.1900 c6         1 328       0.237500
     10 C15          1.0700     1.0160    -0.4790 c6         1 328      -0.122900
     11 C19          5.6130     0.0380     0.3630 ca         1 328       0.213100
     12 C20          6.3400    -0.7050    -0.5710 ca         1 328      -0.310000
     13 C21          5.6140    -1.5260    -1.4160 ca         1 328       0.416900
     14 C24          4.2290    -0.0820     0.3970 ca         1 328      -0.280000
     15 N25         -8.3620    -1.7020     0.2230 n1         1 328      -0.443000
     16 C6          -3.5630     0.6180    -0.2470 ca         1 328      -0.123600
     17 C5          -4.1950     0.0870    -1.3680 ca         1 328      -0.082000
     18 C4          -5.4280    -0.5270    -1.2490 ca         1 328      -0.079000
     19 N17          2.2600    -1.1650    -0.5050 nu         1 328      -0.927100
     20 N11         -1.2370     1.0410     0.3530 n          1 328      -0.400800
     21 O8          -2.2540     2.2800    -1.2500 o          1 328      -0.585100
     22 O18          6.1570     0.8820     1.2460 os         1 328      -0.339100
     23 C23          3.6060    -0.9530    -0.5020 ca         1 328       0.637900
     24 N22          4.2980    -1.6630    -1.4040 nb         1 328      -0.769000
     25 H1          -3.7130     0.9820     1.8700 ha         1 328       0.130500
     26 H2          -5.9220    -0.0740     2.0860 ha         1 328       0.130500
     27 H9           7.7840     1.7720     2.0330 h1         1 328       0.044033
     28 H9A          8.0800     0.1110     1.4910 h1         1 328       0.044033
     29 H9B          7.9370     1.4260     0.3020 h1         1 328       0.044033
     30 H10          0.3370     2.0000     1.2940 h1         1 328       0.061700
     31 H10A        -0.1880     2.7600    -0.2010 h1         1 328       0.061700
     32 H12         -2.0180    -0.7820     1.0530 h1         1 328       0.061700
     33 H12A        -0.7750    -0.0590     2.0570 h1         1 328       0.061700
     34 H13          0.1210    -2.0170     0.8730 hc         1 328       0.060950
     35 H13A        -0.3910    -1.3610    -0.6810 hc         1 328       0.060950
     36 H14          1.6750    -0.1700     1.2050 h1         1 328       0.062700
     37 H15          0.7580     0.8640    -1.5160 hc         1 328       0.060950
     38 H15A         1.9940     1.5970    -0.5010 hc         1 328       0.060950
     39 H20          7.4150    -0.6580    -0.6590 ha         1 328       0.127000
     40 H21          6.1450    -2.1140    -2.1570 h4         1 328       0.013100
     41 H24          3.6660     0.4980     1.1160 ha         1 328       0.132000
     42 H5          -3.7210     0.1460    -2.3390 ha         1 328       0.130500
     43 H4          -5.9110    -0.9520    -2.1180 ha         1 328       0.130500
     44 HN17         1.9230    -1.6680    -1.3120 hn         1 328       0.491000
     45 C16         -2.2800     1.3710    -0.4310 c          1 328       0.610700
@<TRIPOS>BOND
     1     1     2 ar  
     2     1    16 ar  
     3     1    25 1   
     4     2     3 ar  
     5     2    26 1   
     6     3     4 1   
     7     3    18 ar  
     8     4    15 3   
     9     5    22 1   
    10     5    27 1   
    11     5    28 1   
    12     5    29 1   
    13     6    10 1   
    14     6    20 1   
    15     6    30 1   
    16     6    31 1   
    17     7     8 1   
    18     7    20 1   
    19     7    32 1   
    20     7    33 1   
    21     8     9 1   
    22     8    34 1   
    23     8    35 1   
    24     9    10 1   
    25     9    19 1   
    26     9    36 1   
    27    10    37 1   
    28    10    38 1   
    29    11    12 ar  
    30    11    14 ar  
    31    11    22 1   
    32    12    13 ar  
    33    12    39 1   
    34    13    24 ar  
    35    13    40 1   
    36    14    23 ar  
    37    14    41 1   
    38    16    17 ar  
    39    16    45 1   
    40    17    18 ar  
    41    17    42 1   
    42    18    43 1   
    43    19    23 1   
    44    19    44 1   
    45    20    45 1   
    46    21    45 2   
    47    23    24 ar  
@<TRIPOS>SUBSTRUCTURE
     1 328         1 TEMP              0 ****  ****    0 ROOT
