@<TRIPOS>MOLECULE
328
   45    47     1     0     0
SMALL
No Charge or Current Charge


@<TRIPOS>ATOM
      1 C1          -4.1750     0.4130     0.8910 ca         1 328      -0.082000
      2 C2          -5.4680    -0.0940     1.1120 ca         1 328      -0.079000
      3 C3          -6.2940    -0.4280     0.0230 ca         1 328      -0.002000
      4 C7          -7.6160    -0.9450     0.2490 cg         1 328       0.318000
      5 C9           7.7940     1.1940     1.2310 c3         1 328       0.149900
      6 C10         -0.0050     1.7000     0.2120 c6         1 328       0.096000
      7 C12         -1.1300    -0.3840     0.9640 c6         1 328       0.096000
      8 C13          0.0240    -1.2340     0.3810 c6         1 328      -0.122900
      9 C14          1.3480    -0.4410     0.3710 c6         1 328       0.237500
     10 C15          1.1590     0.8870    -0.3960 c6         1 328      -0.122900
     11 C19          5.7350     0.1000     0.4400 ca         1 328       0.213100
     12 C20          6.3840    -0.5410    -0.6270 ca         1 328      -0.310000
     13 C21          5.6350    -1.3650    -1.4760 ca         1 328       0.416900
     14 C24          4.3680    -0.1140     0.6020 ca         1 328      -0.280000
     15 N25         -8.6870    -1.3690     0.4410 n1         1 328      -0.443000
     16 C6          -3.6820     0.5810    -0.4240 ca         1 328      -0.123600
     17 C5          -4.5290     0.2680    -1.5090 ca         1 328      -0.082000
     18 C4          -5.8210    -0.2400    -1.2890 ca         1 328      -0.079000
     19 N17          2.3900    -1.2540    -0.2640 nu         1 328      -0.927100
     20 N11         -1.2690     0.9160     0.2460 n          1 328      -0.400800
     21 O8          -2.1140     1.8760    -1.6630 o          1 328      -0.585100
     22 O18          6.3850     0.9240     1.3320 os         1 328      -0.339100
     23 C23          3.7170    -0.9470    -0.3080 ca         1 328       0.637900
     24 N22          4.3110    -1.5710    -1.3190 nb         1 328      -0.769000
     25 H1          -3.5660     0.6920     1.7490 ha         1 328       0.130500
     26 H2          -5.8280    -0.2190     2.1310 ha         1 328       0.130500
     27 H9           8.1100     1.8720     2.0340 h1         1 328       0.044033
     28 H9A          8.3760     0.2680     1.3200 h1         1 328       0.044033
     29 H9B          8.0330     1.6700     0.2710 h1         1 328       0.044033
     30 H10          0.2550     1.9920     1.2400 h1         1 328       0.061700
     31 H10A        -0.1410     2.6320    -0.3550 h1         1 328       0.061700
     32 H12         -2.0520    -0.9760     0.8990 h1         1 328       0.061700
     33 H12A        -0.9420    -0.1860     2.0290 h1         1 328       0.061700
     34 H13          0.1380    -2.1530     0.9710 hc         1 328       0.060950
     35 H13A        -0.2390    -1.5430    -0.6400 hc         1 328       0.060950
     36 H14          1.6190    -0.2190     1.4150 h1         1 328       0.062700
     37 H15          0.9500     0.6860    -1.4550 hc         1 328       0.060950
     38 H15A         2.0800     1.4840    -0.3620 hc         1 328       0.060950
     39 H20          7.4460    -0.4220    -0.8140 ha         1 328       0.127000
     40 H21          6.1100    -1.8800    -2.3110 h4         1 328       0.013100
     41 H24          3.8320     0.3560     1.4170 ha         1 328       0.132000
     42 H5          -4.1810     0.4100    -2.5310 ha         1 328       0.130500
     43 H4          -6.4540    -0.4840    -2.1400 ha         1 328       0.130500
     44 HN17         2.1320    -1.8470    -1.0450 hn         1 328       0.491000
     45 C16         -2.3030     1.1510    -0.6930 c          1 328       0.610700
@<TRIPOS>BOND
     1     1     2 ar  
     2     1    16 ar  
     3     1    25 1   
     4     2     3 ar  
     5     2    26 1   
     6     3     4 1   
     7     3    18 ar  
     8     4    15 3   
     9     5    22 1   
    10     5    27 1   
    11     5    28 1   
    12     5    29 1   
    13     6    10 1   
    14     6    20 1   
    15     6    30 1   
    16     6    31 1   
    17     7     8 1   
    18     7    20 1   
    19     7    32 1   
    20     7    33 1   
    21     8     9 1   
    22     8    34 1   
    23     8    35 1   
    24     9    10 1   
    25     9    19 1   
    26     9    36 1   
    27    10    37 1   
    28    10    38 1   
    29    11    12 ar  
    30    11    14 ar  
    31    11    22 1   
    32    12    13 ar  
    33    12    39 1   
    34    13    24 ar  
    35    13    40 1   
    36    14    23 ar  
    37    14    41 1   
    38    16    17 ar  
    39    16    45 1   
    40    17    18 ar  
    41    17    42 1   
    42    18    43 1   
    43    19    23 1   
    44    19    44 1   
    45    20    45 1   
    46    21    45 2   
    47    23    24 ar  
@<TRIPOS>SUBSTRUCTURE
     1 328         1 TEMP              0 ****  ****    0 ROOT
