@<TRIPOS>MOLECULE
329
   22    23     1     0     0
SMALL
No Charge or Current Charge


@<TRIPOS>ATOM
      1 C1           1.1640     2.1430     0.2970 cc         1 329      -0.156000
      2 C2           0.2610     1.0810     0.0860 cc         1 329       0.171100
      3 O1          -1.0800     1.3230    -0.0760 os         1 329      -0.330100
      4 C3          -2.0780     0.2900    -0.1380 c3         1 329       0.155300
      5 C4          -3.4310     1.0070    -0.3150 c3         1 329      -0.090100
      6 N1          -0.7840    -1.6980    -0.9400 n2         1 329      -0.683900
      7 C5           0.1740    -1.4790    -0.1190 cf         1 329       0.702800
      8 N2           0.7780    -2.4940     0.4820 nv         1 329      -1.008200
      9 C6           0.7970    -0.1850     0.0990 cd         1 329      -0.425900
     10 S1           2.5510    -0.0510     0.3950 ss         1 329       0.232000
     11 C7           2.4520     1.7190     0.4760 cd         1 329      -0.215000
     12 C8          -1.7480    -0.6530    -1.3230 c3         1 329       0.099800
     13 H1           0.8470     3.1810     0.3150 ha         1 329       0.148000
     14 H3          -2.1120    -0.2810     0.8000 h1         1 329       0.056700
     15 H4          -3.4460     1.5920    -1.2420 hc         1 329       0.049700
     16 H4A         -4.2490     0.2780    -0.3530 hc         1 329       0.049700
     17 H4B         -3.6190     1.6840     0.5270 hc         1 329       0.049700
     18 HN2          0.3130    -3.3910     0.4500 hn         1 329       0.457500
     19 HN2A         1.3520    -2.3040     1.2900 hn         1 329       0.457500
     20 H7           3.3420     2.3110     0.6570 h4         1 329       0.153000
     21 H8          -2.6800    -1.1270    -1.6590 h1         1 329       0.063200
     22 H8A         -1.3720    -0.0570    -2.1660 h1         1 329       0.063200
@<TRIPOS>BOND
     1     1     2 1   
     2     1    11 2   
     3     1    13 1   
     4     2     3 1   
     5     2     9 2   
     6     3     4 1   
     7     4     5 1   
     8     4    12 1   
     9     4    14 1   
    10     5    15 1   
    11     5    16 1   
    12     5    17 1   
    13     6     7 2   
    14     6    12 1   
    15     7     8 1   
    16     7     9 1   
    17     8    18 1   
    18     8    19 1   
    19     9    10 1   
    20    10    11 1   
    21    11    20 1   
    22    12    21 1   
    23    12    22 1   
@<TRIPOS>SUBSTRUCTURE
     1 329         1 TEMP              0 ****  ****    0 ROOT
