@<TRIPOS>MOLECULE
329
   22    23     1     0     0
SMALL
bcc


@<TRIPOS>ATOM
      1 C1           1.0960     2.1210     0.3420 cc         1 329      -0.174000
      2 C2           0.1580     1.0620     0.1540 cc         1 329       0.171100
      3 O1          -1.1290     1.3850     0.0550 os         1 329      -0.306900
      4 C3          -2.1250     0.3670    -0.0800 c3         1 329       0.132100
      5 C4          -3.4100     1.0860    -0.4300 c3         1 329      -0.090100
      6 N1          -0.9450    -1.7680    -0.6300 n2         1 329      -0.683900
      7 C5           0.1810    -1.5110    -0.0850 cf         1 329       0.702800
      8 N2           1.0020    -2.5500     0.2920 nv         1 329      -0.897800
      9 C6           0.7530    -0.1810     0.1180 cd         1 329      -0.281000
     10 S1           2.4760    -0.0260     0.3060 ss         1 329      -0.057800
     11 C7           2.3710     1.6720     0.4410 cd         1 329      -0.088100
     12 C8          -1.7370    -0.6780    -1.1330 c3         1 329       0.099800
     13 H1           0.8090     3.1620     0.4010 ha         1 329       0.166000
     14 H3          -2.2350    -0.1370     0.8880 h1         1 329       0.056700
     15 H4          -3.3570     1.5300    -1.4260 hc         1 329       0.049700
     16 H4A         -4.2400     0.3820    -0.4200 hc         1 329       0.049700
     17 H4B         -3.6330     1.8740     0.2890 hc         1 329       0.049700
     18 HN2          0.5630    -3.4560     0.2120 hn         1 329       0.402300
     19 HN2A         1.4870    -2.4460     1.1710 hn         1 329       0.402300
     20 H7           3.2630     2.2630     0.5830 h4         1 329       0.171000
     21 H8          -2.6610    -1.0990    -1.5330 h1         1 329       0.063200
     22 H8A         -1.2520    -0.1610    -1.9730 h1         1 329       0.063200
@<TRIPOS>BOND
     1     1     2 1   
     2     1    11 2   
     3     1    13 1   
     4     2     3 1   
     5     2     9 2   
     6     3     4 1   
     7     4     5 1   
     8     4    12 1   
     9     4    14 1   
    10     5    15 1   
    11     5    16 1   
    12     5    17 1   
    13     6     7 2   
    14     6    12 1   
    15     7     8 1   
    16     7     9 1   
    17     8    18 1   
    18     8    19 1   
    19     9    10 1   
    20    10    11 1   
    21    11    20 1   
    22    12    21 1   
    23    12    22 1   
@<TRIPOS>SUBSTRUCTURE
     1 329         1 TEMP              0 ****  ****    0 ROOT
