@<TRIPOS>MOLECULE
32A
   36    36     1     0     0
SMALL
bcc


@<TRIPOS>ATOM
      1 C1          -0.4890     1.5490     0.3600 cc         1 32A       0.153200
      2 C2          -1.8740     1.2610    -0.0140 c          1 32A       0.589600
      3 C3          -4.1510    -0.8030    -0.8660 cs         1 32A       0.601400
      4 C4           1.6760     1.3490     0.2950 cc         1 32A       0.411700
      5 C5          -0.0030     2.4340     1.2720 cd         1 32A      -0.172300
      6 C6           2.8850     0.7990    -0.1680 cg         1 32A      -0.252000
      7 C7           3.9330     0.3390    -0.5510 c1         1 32A      -0.049100
      8 N1          -2.0450     0.2970    -0.9670 ns         1 32A      -0.464500
      9 N2          -3.2880     0.0600    -1.4710 ns         1 32A      -0.384500
     10 N3          -3.6550    -1.5940     0.0720 ns         1 32A      -0.492900
     11 C9           5.1980    -0.2340    -0.9750 c3         1 32A      -0.003300
     12 C8           1.4050     2.3060     1.2310 cd         1 32A      -0.256300
     13 O2          -2.8030     1.8360     0.5170 o          1 32A      -0.547100
     14 C10         -4.4320    -2.5820     0.7840 c3         1 32A       0.097300
     15 S1          -5.7520    -0.8380    -1.3680 s          1 32A      -0.640400
     16 O1           0.5250     0.8870    -0.2370 os         1 32A      -0.322800
     17 C11          5.6960    -1.3320    -0.0290 c3         1 32A      -0.074400
     18 C12          7.0300    -1.9120    -0.4790 c3         1 32A      -0.076400
     19 C13          7.5330    -3.0020     0.4560 c3         1 32A      -0.089100
     20 H5          -0.5830     3.0950     1.8940 ha         1 32A       0.181000
     21 HN1         -1.2680    -0.0650    -1.5020 hn         1 32A       0.356500
     22 HN2         -3.6990     0.7760    -2.0540 hn         1 32A       0.360500
     23 HN3         -2.6750    -1.5180     0.3010 hn         1 32A       0.320500
     24 H9           5.0850    -0.6360    -1.9860 hc         1 32A       0.065700
     25 H9A          5.9420     0.5650    -1.0430 hc         1 32A       0.065700
     26 H8           2.1310     2.8460     1.8160 ha         1 32A       0.174000
     27 H10         -5.2270    -2.1170     1.3660 h1         1 32A       0.055367
     28 H10A        -4.8830    -3.3000     0.1000 h1         1 32A       0.055367
     29 H10B        -3.7630    -3.1080     1.4580 h1         1 32A       0.055367
     30 H11          5.7930    -0.9220     0.9800 hc         1 32A       0.048700
     31 H11A         4.9470    -2.1260     0.0260 hc         1 32A       0.048700
     32 H12          6.9300    -2.3120    -1.4920 hc         1 32A       0.039200
     33 H12A         7.7720    -1.1100    -0.5390 hc         1 32A       0.039200
     34 H13          7.6790    -2.6170     1.4670 hc         1 32A       0.034700
     35 H13A         6.8230    -3.8290     0.5190 hc         1 32A       0.034700
     36 H13B         8.4860    -3.4090     0.1160 hc         1 32A       0.034700
@<TRIPOS>BOND
     1     1     2 1   
     2     1     5 2   
     3     1    16 1   
     4     2     8 1   
     5     2    13 2   
     6     3     9 1   
     7     3    10 1   
     8     3    15 2   
     9     4     6 1   
    10     4    12 2   
    11     4    16 1   
    12     5    12 1   
    13     5    20 1   
    14     6     7 3   
    15     7    11 1   
    16     8     9 1   
    17     8    21 1   
    18     9    22 1   
    19    10    14 1   
    20    10    23 1   
    21    11    17 1   
    22    11    24 1   
    23    11    25 1   
    24    12    26 1   
    25    14    27 1   
    26    14    28 1   
    27    14    29 1   
    28    17    18 1   
    29    17    30 1   
    30    17    31 1   
    31    18    19 1   
    32    18    32 1   
    33    18    33 1   
    34    19    34 1   
    35    19    35 1   
    36    19    36 1   
@<TRIPOS>SUBSTRUCTURE
     1 32A         1 TEMP              0 ****  ****    0 ROOT
