@<TRIPOS>MOLECULE
32A
   36    36     1     0     0
SMALL
No Charge or Current Charge


@<TRIPOS>ATOM
      1 C1          -0.5310     1.2140     0.4760 cc         1 32A       0.043500
      2 C2          -1.9820     1.2780     0.1620 c          1 32A       0.522600
      3 C3          -4.6060    -0.3690    -1.0230 cs         1 32A       0.467400
      4 C4           1.6130     0.7260     0.3140 cc         1 32A       0.302000
      5 C5           0.0880     1.7770     1.5620 cd         1 32A      -0.089000
      6 C6           2.7990     0.1700    -0.2340 cg         1 32A      -0.252000
      7 C7           3.8280    -0.3020    -0.6750 c1         1 32A      -0.049100
      8 N1          -2.3200     0.6110    -1.0070 ns         1 32A      -0.397500
      9 N2          -3.6580     0.4990    -1.5090 ns         1 32A      -0.317500
     10 N3          -4.1360    -1.2410    -0.0830 ns         1 32A      -0.425900
     11 C9           5.0890    -0.8750    -1.1630 c3         1 32A      -0.003300
     12 C8           1.4600     1.4630     1.4550 cd         1 32A      -0.173000
     13 O2          -2.8140     1.8530     0.8520 o          1 32A      -0.547100
     14 C10         -4.9110    -2.2800     0.5980 c3         1 32A       0.097300
     15 S1          -6.1810    -0.3650    -1.5780 s          1 32A      -0.640400
     16 O1           0.3980     0.5570    -0.3090 os         1 32A      -0.234000
     17 C11          6.0550    -1.2450    -0.0140 c3         1 32A      -0.074400
     18 C12          7.3860    -1.8480    -0.5150 c3         1 32A      -0.076400
     19 C13          8.3490    -2.2170     0.6300 c3         1 32A      -0.089100
     20 H5          -0.3910     2.3530     2.3490 ha         1 32A       0.163000
     21 HN1         -1.5800     0.1430    -1.5280 hn         1 32A       0.356500
     22 HN2         -3.9580     1.1950    -2.1900 hn         1 32A       0.360500
     23 HN3         -3.1580    -1.1430     0.1600 hn         1 32A       0.320500
     24 H9           4.8650    -1.7680    -1.7600 hc         1 32A       0.065700
     25 H9A          5.5700    -0.1510    -1.8320 hc         1 32A       0.065700
     26 H8           2.2510     1.7470     2.1410 ha         1 32A       0.156000
     27 H10         -5.7430    -1.8200     1.1480 h1         1 32A       0.055367
     28 H10A        -5.3080    -2.9890    -0.1390 h1         1 32A       0.055367
     29 H10B        -4.2650    -2.8170     1.3050 h1         1 32A       0.055367
     30 H11          6.2690    -0.3490     0.5820 hc         1 32A       0.048700
     31 H11A         5.5640    -1.9640     0.6540 hc         1 32A       0.048700
     32 H12          7.1780    -2.7470    -1.1080 hc         1 32A       0.039200
     33 H12A         7.8820    -1.1320    -1.1810 hc         1 32A       0.039200
     34 H13          8.6050    -1.3300     1.2230 hc         1 32A       0.034700
     35 H13A         7.8950    -2.9600     1.2970 hc         1 32A       0.034700
     36 H13B         9.2780    -2.6400     0.2280 hc         1 32A       0.034700
@<TRIPOS>BOND
     1     1     2 1   
     2     1     5 2   
     3     1    16 1   
     4     2     8 1   
     5     2    13 2   
     6     3     9 1   
     7     3    10 1   
     8     3    15 2   
     9     4     6 1   
    10     4    12 2   
    11     4    16 1   
    12     5    12 1   
    13     5    20 1   
    14     6     7 3   
    15     7    11 1   
    16     8     9 1   
    17     8    21 1   
    18     9    22 1   
    19    10    14 1   
    20    10    23 1   
    21    11    17 1   
    22    11    24 1   
    23    11    25 1   
    24    12    26 1   
    25    14    27 1   
    26    14    28 1   
    27    14    29 1   
    28    17    18 1   
    29    17    30 1   
    30    17    31 1   
    31    18    19 1   
    32    18    32 1   
    33    18    33 1   
    34    19    34 1   
    35    19    35 1   
    36    19    36 1   
@<TRIPOS>SUBSTRUCTURE
     1 32A         1 TEMP              0 ****  ****    0 ROOT
