@<TRIPOS>MOLECULE
32B
   66    69     1     0     0
SMALL
abcg2


@<TRIPOS>ATOM
      1 C1           0.9970     2.3020     2.7370 c3         1 32B      -0.091100
      2 C2           0.1430     1.1230     2.2910 c3         1 32B      -0.100400
      3 C3           0.6970     0.3970     1.0520 c3         1 32B       0.277800
      4 C4          -0.3490    -0.5440     0.4700 ca         1 32B      -0.117300
      5 C5          -0.2380    -1.9290     0.5450 ca         1 32B      -0.111000
      6 C6          -1.2210    -2.7600     0.0350 ca         1 32B      -0.095000
      7 C7          -2.3780    -2.2540    -0.5520 ca         1 32B      -0.110600
      8 C8          -2.4710    -0.8720    -0.6620 ca         1 32B       0.084100
      9 C9          -1.4740    -0.0260    -0.1720 ca         1 32B       0.052100
     10 O10         -1.6300     1.3200    -0.3160 os         1 32B      -0.369100
     11 C11         -1.1970     1.8350    -1.5680 c3         1 32B       0.154900
     12 O12         -3.5100    -0.2870    -1.3390 os         1 32B      -0.223200
     13 C13         -4.5080     0.2960    -0.6390 ca         1 32B       0.213100
     14 C14         -4.7070     0.1090     0.7240 ca         1 32B      -0.148000
     15 C15         -5.7590     0.7600     1.3490 ca         1 32B      -0.077000
     16 C16         -6.6250     1.5850     0.6450 ca         1 32B      -0.163000
     17 C17         -6.4080     1.7440    -0.7150 ca         1 32B       0.151000
     18 C18         -5.3620     1.1170    -1.3690 ca         1 32B      -0.150000
     19 CL          -7.4700     2.7660    -1.6310 cl         1 32B      -0.245000
     20 C20         -3.4750    -3.2050    -1.0170 c          1 32B       0.717600
     21 O21         -3.0930    -4.3260    -1.4050 o          1 32B      -0.702500
     22 O22         -4.6440    -2.7920    -0.9390 o          1 32B      -0.702500
     23 N23          1.9690    -0.2850     1.2510 n3         1 32B      -0.779600
     24 C24          2.2230    -0.8760     2.5510 c6         1 32B       0.192800
     25 C25          3.3280    -1.9170     2.4540 c6         1 32B      -0.079400
     26 C26          4.5990    -1.3200     1.8600 c6         1 32B      -0.088400
     27 C27          4.2510    -0.6440     0.5400 c6         1 32B       0.113700
     28 C28          3.1310     0.3830     0.7060 c6         1 32B       0.187800
     29 N29          5.4160    -0.0980    -0.1760 n          1 32B      -0.302000
     30 C30          5.7090    -0.5910    -1.4200 cc         1 32B       0.002600
     31 C31          6.7480    -0.1990    -2.1790 cd         1 32B      -0.281400
     32 C32          7.6260     0.8190    -1.6450 c          1 32B       0.590200
     33 O33          8.6070     1.2700    -2.2090 o          1 32B      -0.543000
     34 N34          7.2630     1.2740    -0.3920 ns         1 32B      -0.471500
     35 C35          6.1970     0.8860     0.3820 c          1 32B       0.614000
     36 O36          5.9880     1.3910     1.4670 o          1 32B      -0.560000
     37 C37          7.0290    -0.7650    -3.5330 c3         1 32B      -0.015900
     38 H1           0.5450     2.8040     3.5930 hc         1 32B       0.028033
     39 H2           2.0020     2.0020     3.0320 hc         1 32B       0.028033
     40 H3           1.0960     3.0400     1.9380 hc         1 32B       0.028033
     41 H4           0.0170     0.4140     3.1130 hc         1 32B       0.056700
     42 H5          -0.8580     1.4870     2.0570 hc         1 32B       0.056700
     43 H6           0.8770     1.1730     0.3020 h1         1 32B       0.049700
     44 H7           0.6480    -2.3670     0.9820 ha         1 32B       0.105000
     45 H8          -1.0970    -3.8330     0.1060 ha         1 32B       0.133000
     46 H9          -1.3870     2.9060    -1.5560 h1         1 32B       0.029367
     47 H10         -0.1260     1.6720    -1.7210 h1         1 32B       0.029367
     48 H11         -1.7400     1.3890    -2.4030 h1         1 32B       0.029367
     49 H12         -4.0560    -0.5360     1.2970 ha         1 32B       0.136000
     50 H13         -5.9140     0.6150     2.4100 ha         1 32B       0.101000
     51 H14         -7.4440     2.0850     1.1410 ha         1 32B       0.112000
     52 H15         -5.2010     1.2610    -2.4300 ha         1 32B       0.132000
     53 H18          2.5030    -0.1220     3.3060 h1         1 32B       0.037700
     54 H19          1.3140    -1.3550     2.9180 h1         1 32B       0.037700
     55 H20          3.5370    -2.3210     3.4460 hc         1 32B       0.048200
     56 H21          2.9840    -2.7500     1.8340 hc         1 32B       0.048200
     57 H22          5.0280    -0.6010     2.5590 hc         1 32B       0.053700
     58 H23          5.3480    -2.0970     1.6920 hc         1 32B       0.053700
     59 H24          3.8570    -1.4160    -0.1220 h1         1 32B       0.070700
     60 H25          2.8790     0.7840    -0.2790 h1         1 32B       0.045200
     61 H26          3.4740     1.2220     1.3250 h1         1 32B       0.045200
     62 H27          5.0260    -1.3510    -1.7770 h4         1 32B       0.211000
     63 H28          7.8460     1.9940     0.0180 hn         1 32B       0.337500
     64 H29          6.9950     0.0070    -4.3030 hc         1 32B       0.044700
     65 H30          8.0190    -1.2210    -3.5750 hc         1 32B       0.044700
     66 H31          6.2980    -1.5290    -3.7940 hc         1 32B       0.044700
@<TRIPOS>BOND
     1     1     2 1   
     2     1    38 1   
     3     1    39 1   
     4     1    40 1   
     5     2     3 1   
     6     2    41 1   
     7     2    42 1   
     8     3     4 1   
     9     3    23 1   
    10     3    43 1   
    11     4     5 ar  
    12     4     9 ar  
    13     5     6 ar  
    14     5    44 1   
    15     6     7 ar  
    16     6    45 1   
    17     7     8 ar  
    18     7    20 1   
    19     8     9 ar  
    20     8    12 1   
    21     9    10 1   
    22    10    11 1   
    23    11    46 1   
    24    11    47 1   
    25    11    48 1   
    26    12    13 1   
    27    13    14 ar  
    28    13    18 ar  
    29    14    15 ar  
    30    14    49 1   
    31    15    16 ar  
    32    15    50 1   
    33    16    17 ar  
    34    16    51 1   
    35    17    18 ar  
    36    17    19 1   
    37    18    52 1   
    38    20    21 1   
    39    20    22 1   
    40    23    24 1   
    41    23    28 1   
    42    24    25 1   
    43    24    53 1   
    44    24    54 1   
    45    25    26 1   
    46    25    55 1   
    47    25    56 1   
    48    26    27 1   
    49    26    57 1   
    50    26    58 1   
    51    27    28 1   
    52    27    29 1   
    53    27    59 1   
    54    28    60 1   
    55    28    61 1   
    56    29    30 1   
    57    29    35 1   
    58    30    31 2   
    59    30    62 1   
    60    31    32 1   
    61    31    37 1   
    62    32    33 2   
    63    32    34 1   
    64    34    35 1   
    65    34    63 1   
    66    35    36 2   
    67    37    64 1   
    68    37    65 1   
    69    37    66 1   
@<TRIPOS>SUBSTRUCTURE
     1 32B         1 TEMP              0 ****  ****    0 ROOT
