@<TRIPOS>MOLECULE
32B
   66    69     1     0     0
SMALL
No Charge or Current Charge


@<TRIPOS>ATOM
      1 C1           1.1050     2.1730     2.4660 c3         1 32B      -0.091100
      2 C2           0.1880     0.9670     2.1650 c3         1 32B      -0.100400
      3 C3           0.5990     0.0920     0.9380 c3         1 32B       0.277800
      4 C4          -0.5570    -0.8370     0.5010 ca         1 32B      -0.117300
      5 C5          -0.5150    -2.2360     0.7050 ca         1 32B      -0.111000
      6 C6          -1.5760    -3.0590     0.2980 ca         1 32B      -0.095000
      7 C7          -2.7180    -2.5110    -0.3140 ca         1 32B      -0.110600
      8 C8          -2.7720    -1.1210    -0.5430 ca         1 32B       0.084100
      9 C9          -1.6840    -0.2900    -0.1630 ca         1 32B       0.052100
     10 O10         -1.7080     1.0650    -0.4310 os         1 32B      -0.369100
     11 C11         -1.6900     1.5320    -1.7910 c3         1 32B       0.154900
     12 O12         -3.8900    -0.5850    -1.1460 os         1 32B      -0.223200
     13 C13         -4.6840     0.3600    -0.5310 ca         1 32B       0.213100
     14 C14         -4.7230     0.4930     0.8730 ca         1 32B      -0.148000
     15 C15         -5.5460     1.4670     1.4650 ca         1 32B      -0.077000
     16 C16         -6.3340     2.3030     0.6560 ca         1 32B      -0.163000
     17 C17         -6.3010     2.1620    -0.7410 ca         1 32B       0.151000
     18 C18         -5.4810     1.1910    -1.3340 ca         1 32B      -0.150000
     19 Cl          -7.2910     3.2080    -1.7500 cl         1 32B      -0.245000
     20 C20         -3.8540    -3.4160    -0.7160 c          1 32B       0.717600
     21 O21         -3.5900    -4.3890    -1.4090 o          1 32B      -0.702500
     22 O22         -4.9680    -3.1940    -0.2630 o          1 32B      -0.702500
     23 N23          1.9220    -0.6060     1.0500 n3         1 32B      -0.779600
     24 C24          2.2410    -1.1880     2.3920 c6         1 32B       0.192800
     25 C25          3.4750    -2.1210     2.3210 c6         1 32B      -0.079400
     26 C26          4.7120    -1.3730     1.7690 c6         1 32B      -0.088400
     27 C27          4.3640    -0.6980     0.4180 c6         1 32B       0.113700
     28 C28          3.0750     0.1730     0.5010 c6         1 32B       0.187800
     29 N29          5.5320    -0.0150    -0.2200 n          1 32B      -0.302000
     30 C30          6.0850    -0.5440    -1.3920 cc         1 32B       0.002600
     31 C31          7.1580     0.0640    -2.0070 cd         1 32B      -0.281400
     32 C32          7.7460     1.2950    -1.4280 c          1 32B       0.590200
     33 O33          8.6930     1.9030    -1.8990 o          1 32B      -0.543000
     34 N34          7.1330     1.7130    -0.2920 ns         1 32B      -0.471500
     35 C35          6.0770     1.1570     0.3570 c          1 32B       0.614000
     36 O36          5.6560     1.6730     1.3780 o          1 32B      -0.560000
     37 C37          7.7990    -0.4570    -3.2740 c3         1 32B      -0.015900
     38 H1           0.6490     2.8110     3.2330 hc         1 32B       0.028033
     39 H2           2.0820     1.8500     2.8430 hc         1 32B       0.028033
     40 H3           1.2590     2.7790     1.5650 hc         1 32B       0.028033
     41 H4           0.0960     0.3400     3.0590 hc         1 32B       0.056700
     42 H5          -0.8170     1.3650     1.9860 hc         1 32B       0.056700
     43 H6           0.6970     0.8020     0.1050 h1         1 32B       0.049700
     44 H7           0.3440    -2.7080     1.1690 ha         1 32B       0.105000
     45 H8          -1.5170    -4.1320     0.4700 ha         1 32B       0.133000
     46 H9          -1.6800     2.6290    -1.8150 h1         1 32B       0.029367
     47 H10         -0.7920     1.1700    -2.3090 h1         1 32B       0.029367
     48 H11         -2.5700     1.1900    -2.3470 h1         1 32B       0.029367
     49 H12         -4.1220    -0.1540     1.5050 ha         1 32B       0.136000
     50 H13         -5.5740     1.5720     2.5480 ha         1 32B       0.101000
     51 H14         -6.9710     3.0570     1.1100 ha         1 32B       0.112000
     52 H15         -5.4570     1.0850    -2.4140 ha         1 32B       0.132000
     53 H18          2.4540    -0.3900     3.1170 h1         1 32B       0.037700
     54 H19          1.3900    -1.7560     2.7940 h1         1 32B       0.037700
     55 H20          3.6950    -2.5220     3.3200 hc         1 32B       0.048200
     56 H21          3.2440    -2.9840     1.6820 hc         1 32B       0.048200
     57 H22          5.0390    -0.6230     2.5000 hc         1 32B       0.053700
     58 H23          5.5480    -2.0740     1.6370 hc         1 32B       0.053700
     59 H24          4.0830    -1.5260    -0.2470 h1         1 32B       0.070700
     60 H25          2.8410     0.5350    -0.5110 h1         1 32B       0.045200
     61 H26          3.2660     1.0580     1.1200 h1         1 32B       0.045200
     62 H27          5.5930    -1.4470    -1.7440 h4         1 32B       0.211000
     63 H28          7.5110     2.5470     0.1270 hn         1 32B       0.337500
     64 H29          7.7440     0.2850    -4.0800 hc         1 32B       0.044700
     65 H30          8.8560    -0.7000    -3.1120 hc         1 32B       0.044700
     66 H31          7.3020    -1.3680    -3.6310 hc         1 32B       0.044700
@<TRIPOS>BOND
     1     1     2 1   
     2     1    38 1   
     3     1    39 1   
     4     1    40 1   
     5     2     3 1   
     6     2    41 1   
     7     2    42 1   
     8     3     4 1   
     9     3    23 1   
    10     3    43 1   
    11     4     5 ar  
    12     4     9 ar  
    13     5     6 ar  
    14     5    44 1   
    15     6     7 ar  
    16     6    45 1   
    17     7     8 ar  
    18     7    20 1   
    19     8     9 ar  
    20     8    12 1   
    21     9    10 1   
    22    10    11 1   
    23    11    46 1   
    24    11    47 1   
    25    11    48 1   
    26    12    13 1   
    27    13    14 ar  
    28    13    18 ar  
    29    14    15 ar  
    30    14    49 1   
    31    15    16 ar  
    32    15    50 1   
    33    16    17 ar  
    34    16    51 1   
    35    17    18 ar  
    36    17    19 1   
    37    18    52 1   
    38    20    21 1   
    39    20    22 1   
    40    23    24 1   
    41    23    28 1   
    42    24    25 1   
    43    24    53 1   
    44    24    54 1   
    45    25    26 1   
    46    25    55 1   
    47    25    56 1   
    48    26    27 1   
    49    26    57 1   
    50    26    58 1   
    51    27    28 1   
    52    27    29 1   
    53    27    59 1   
    54    28    60 1   
    55    28    61 1   
    56    29    30 1   
    57    29    35 1   
    58    30    31 2   
    59    30    62 1   
    60    31    32 1   
    61    31    37 1   
    62    32    33 2   
    63    32    34 1   
    64    34    35 1   
    65    34    63 1   
    66    35    36 2   
    67    37    64 1   
    68    37    65 1   
    69    37    66 1   
@<TRIPOS>SUBSTRUCTURE
     1 32B         1 TEMP              0 ****  ****    0 ROOT
