@<TRIPOS>MOLECULE
32C
   68    71     1     0     0
SMALL
No Charge or Current Charge


@<TRIPOS>ATOM
      1 C1           7.6670     2.6830     2.0370 c3         1 32C      -0.015900
      2 C2           6.9820     1.5090     1.3760 cc         1 32C      -0.280400
      3 C3           5.8420     1.6140     0.6080 cd         1 32C       0.002600
      4 N4           5.2610     0.4840     0.0280 n          1 32C      -0.303000
      5 C5           5.8420    -0.7930     0.2120 c          1 32C       0.615000
      6 O6           5.3960    -1.8190    -0.2720 o          1 32C      -0.559000
      7 N7           6.9630    -0.8370     0.9770 ns         1 32C      -0.470500
      8 C8           7.6080     0.1860     1.5900 c          1 32C       0.589200
      9 O9           8.6140    -0.0110     2.2520 o          1 32C      -0.543000
     10 C10          4.0210     0.6580    -0.7880 c6         1 32C       0.114700
     11 C11          4.2500     0.4160    -2.3020 c6         1 32C      -0.089400
     12 C12          2.9420     0.6830    -3.0850 c6         1 32C      -0.079400
     13 C13          1.7610    -0.1300    -2.5000 c6         1 32C       0.188800
     14 N14          1.5560     0.1750    -1.0490 n3         1 32C      -0.773600
     15 C15          2.7830    -0.1150    -0.2440 c6         1 32C       0.184800
     16 C16          0.2840    -0.3380    -0.4450 c3         1 32C       0.278800
     17 C17         -0.1710    -1.7610    -0.9120 c3         1 32C      -0.102400
     18 C18          0.7570    -2.9630    -0.5690 c3         1 32C      -0.063700
     19 C19          0.9700    -3.1410     0.9530 c3         1 32C      -0.086600
     20 C20          0.2130    -4.2670    -1.1960 c3         1 32C      -0.086600
     21 C21         -0.8830     0.6660    -0.5400 ca         1 32C      -0.147300
     22 C22         -0.9290     1.6920    -1.5130 ca         1 32C      -0.096000
     23 C23         -2.0110     2.5850    -1.5680 ca         1 32C      -0.106000
     24 C24         -3.0840     2.4800    -0.6600 ca         1 32C      -0.097600
     25 C25         -3.0440     1.4720     0.3260 ca         1 32C       0.062100
     26 C26         -1.9430     0.5860     0.3920 ca         1 32C       0.127000
     27 F27         -1.8990    -0.3420     1.3790 f          1 32C      -0.194000
     28 O28         -4.0620     1.3800     1.2520 os         1 32C      -0.215200
     29 C29         -4.8130     0.2350     1.4180 ca         1 32C       0.212100
     30 C30         -5.4580     0.0250     2.6490 ca         1 32C      -0.142000
     31 C31         -6.2320    -1.1300     2.8570 ca         1 32C      -0.080000
     32 C32         -6.3640    -2.0750     1.8250 ca         1 32C      -0.164000
     33 C33         -5.7280    -1.8610     0.5910 ca         1 32C       0.159000
     34 C34         -4.9570    -0.7090     0.3820 ca         1 32C      -0.160000
     35 C36         -4.2400     3.4450    -0.7520 c          1 32C       0.717600
     36 O37         -5.3760     2.9950    -0.8220 o          1 32C      -0.700500
     37 O38         -3.9830     4.6380    -0.8370 o          1 32C      -0.700500
     38 Cl          -5.9000    -3.0430    -0.6990 cl         1 32C      -0.241000
     39 H1           7.7010     2.5570     3.1270 hc         1 32C       0.044367
     40 H2           8.6980     2.7920     1.6770 hc         1 32C       0.044367
     41 H3           7.1410     3.6220     1.8280 hc         1 32C       0.044367
     42 H4           5.3300     2.5520     0.4060 h4         1 32C       0.210000
     43 H5           7.3680    -1.7500     1.1040 hn         1 32C       0.337500
     44 H6           3.7310     1.7150    -0.7100 h1         1 32C       0.070700
     45 H7           5.0500     1.0700    -2.6720 hc         1 32C       0.053700
     46 H8           4.5750    -0.6170    -2.4800 hc         1 32C       0.053700
     47 H9           2.6980     1.7540    -3.0510 hc         1 32C       0.049200
     48 H10          3.0800     0.4260    -4.1440 hc         1 32C       0.049200
     49 H11          0.8570     0.0880    -3.0850 h1         1 32C       0.039700
     50 H12          1.9750    -1.2000    -2.6420 h1         1 32C       0.039700
     51 H14          2.9940    -1.1910    -0.2460 h1         1 32C       0.048200
     52 H15          2.6290     0.1790     0.8040 h1         1 32C       0.048200
     53 H16          0.4620    -0.4220     0.6350 h1         1 32C       0.057700
     54 H17         -1.1510    -1.9730    -0.4710 hc         1 32C       0.054700
     55 H18         -0.3500    -1.7380    -1.9940 hc         1 32C       0.054700
     56 H19          1.7370    -2.7900    -1.0260 hc         1 32C       0.043700
     57 H20          1.5940    -4.0200     1.1550 hc         1 32C       0.030533
     58 H21          1.4750    -2.2730     1.3910 hc         1 32C       0.030533
     59 H22          0.0110    -3.2780     1.4680 hc         1 32C       0.030533
     60 H23          0.1130    -4.1630    -2.2840 hc         1 32C       0.030533
     61 H24          0.8920    -5.1060    -0.9990 hc         1 32C       0.030533
     62 H25         -0.7720    -4.5190    -0.7840 hc         1 32C       0.030533
     63 H26         -0.1250     1.8200    -2.2290 ha         1 32C       0.106000
     64 H27         -2.0220     3.3640    -2.3280 ha         1 32C       0.136000
     65 H28         -5.3510     0.7580     3.4450 ha         1 32C       0.125000
     66 H29         -6.7260    -1.2920     3.8120 ha         1 32C       0.101000
     67 H30         -6.9600    -2.9700     1.9800 ha         1 32C       0.112000
     68 H31         -4.4810    -0.5540    -0.5810 ha         1 32C       0.142000
@<TRIPOS>BOND
     1     1     2 1   
     2     1    39 1   
     3     1    40 1   
     4     1    41 1   
     5     2     3 2   
     6     2     8 1   
     7     3     4 1   
     8     3    42 1   
     9     4     5 1   
    10     4    10 1   
    11     5     6 2   
    12     5     7 1   
    13     7     8 1   
    14     7    43 1   
    15     8     9 2   
    16    10    11 1   
    17    10    15 1   
    18    10    44 1   
    19    11    12 1   
    20    11    45 1   
    21    11    46 1   
    22    12    13 1   
    23    12    47 1   
    24    12    48 1   
    25    13    14 1   
    26    13    49 1   
    27    13    50 1   
    28    14    15 1   
    29    14    16 1   
    30    15    51 1   
    31    15    52 1   
    32    16    17 1   
    33    16    21 1   
    34    16    53 1   
    35    17    18 1   
    36    17    54 1   
    37    17    55 1   
    38    18    19 1   
    39    18    20 1   
    40    18    56 1   
    41    19    57 1   
    42    19    58 1   
    43    19    59 1   
    44    20    60 1   
    45    20    61 1   
    46    20    62 1   
    47    21    22 ar  
    48    21    26 ar  
    49    22    23 ar  
    50    22    63 1   
    51    23    24 ar  
    52    23    64 1   
    53    24    25 ar  
    54    24    35 1   
    55    25    26 ar  
    56    25    28 1   
    57    26    27 1   
    58    28    29 1   
    59    29    30 ar  
    60    29    34 ar  
    61    30    31 ar  
    62    30    65 1   
    63    31    32 ar  
    64    31    66 1   
    65    32    33 ar  
    66    32    67 1   
    67    33    34 ar  
    68    33    38 1   
    69    34    68 1   
    70    35    36 1   
    71    35    37 1   
@<TRIPOS>SUBSTRUCTURE
     1 32C         1 TEMP              0 ****  ****    0 ROOT
