@<TRIPOS>MOLECULE
32C
   68    71     1     0     0
SMALL
bcc


@<TRIPOS>ATOM
      1 C1           7.1930     3.0510     1.9370 c3         1 32C      -0.015900
      2 C2           6.7860     1.7940     1.2420 cc         1 32C      -0.280400
      3 C3           5.6360     1.6720     0.5540 cd         1 32C       0.052600
      4 N4           5.2290     0.5380    -0.1000 n          1 32C      -0.370000
      5 C5           6.0120    -0.5910    -0.0830 c          1 32C       0.824500
      6 O6           5.7180    -1.6320    -0.6350 o          1 32C      -0.634500
      7 N7           7.1830    -0.4630     0.6210 ns         1 32C      -0.604500
      8 C8           7.6610     0.6430     1.2980 c          1 32C       0.731700
      9 O9           8.7320     0.6020     1.8780 o          1 32C      -0.618500
     10 C10          3.9490     0.5680    -0.8280 c6         1 32C       0.114700
     11 C11          4.0970     0.3810    -2.3320 c6         1 32C      -0.089400
     12 C12          2.7260     0.5240    -2.9830 c6         1 32C      -0.079400
     13 C13          1.7210    -0.4160    -2.3340 c6         1 32C       0.188800
     14 N14          1.6460    -0.1620    -0.9060 n3         1 32C      -0.773600
     15 C15          2.9110    -0.3870    -0.2360 c6         1 32C       0.184800
     16 C16          0.4660    -0.6380    -0.2020 c3         1 32C       0.278800
     17 C17         -0.0670    -2.0010    -0.6830 c3         1 32C      -0.102400
     18 C18          0.8980    -3.1820    -0.5360 c3         1 32C      -0.063700
     19 C19          1.2330    -3.4750     0.9230 c3         1 32C      -0.086600
     20 C20          0.2930    -4.4170    -1.1970 c3         1 32C      -0.086600
     21 C21         -0.6430     0.4060    -0.2380 ca         1 32C      -0.147300
     22 C22         -0.6410     1.4930    -1.1080 ca         1 32C      -0.114000
     23 C23         -1.6740     2.4150    -1.1210 ca         1 32C      -0.124000
     24 C24         -2.7720     2.3050    -0.2720 ca         1 32C      -0.097600
     25 C25         -2.7630     1.2500     0.6340 ca         1 32C       0.062100
     26 C26         -1.7150     0.3390     0.6370 ca         1 32C       0.091900
     27 F27         -1.7570    -0.6390     1.5600 f          1 32C      -0.158900
     28 O28         -3.7110     1.1210     1.6120 os         1 32C      -0.215200
     29 C29         -4.7670     0.2980     1.4190 ca         1 32C       0.212100
     30 C30         -5.6600     0.1810     2.4790 ca         1 32C      -0.160000
     31 C31         -6.7540    -0.6590     2.3600 ca         1 32C      -0.098000
     32 C32         -6.9770    -1.3910     1.2000 ca         1 32C      -0.182000
     33 C33         -6.0720    -1.2540     0.1620 ca         1 32C       0.067400
     34 C34         -4.9680    -0.4190     0.2460 ca         1 32C      -0.178000
     35 C36         -3.9160     3.3110    -0.3690 c          1 32C       0.928200
     36 O37         -5.0440     2.9060    -0.0410 o          1 32C      -0.805800
     37 O38         -3.6090     4.4370    -0.8000 o          1 32C      -0.805800
     38 CL          -6.3200    -2.1500    -1.3030 cl         1 32C      -0.149400
     39 H1           7.3440     2.8860     3.0040 hc         1 32C       0.044367
     40 H2           8.1280     3.4430     1.5350 hc         1 32C       0.044367
     41 H3           6.4320     3.8220     1.8230 hc         1 32C       0.044367
     42 H4           4.9490     2.5040     0.4840 h4         1 32C       0.160000
     43 H5           7.7620    -1.2930     0.6410 hn         1 32C       0.337500
     44 H6           3.5620     1.5750    -0.6610 h1         1 32C       0.070700
     45 H7           4.7980     1.1170    -2.7320 hc         1 32C       0.053700
     46 H8           4.4960    -0.6100    -2.5540 hc         1 32C       0.053700
     47 H9           2.3730     1.5560    -2.8980 hc         1 32C       0.049200
     48 H10          2.7990     0.2970    -4.0490 hc         1 32C       0.049200
     49 H11          0.7390    -0.2680    -2.7840 h1         1 32C       0.039700
     50 H12          2.0170    -1.4520    -2.5600 h1         1 32C       0.039700
     51 H14          3.2600    -1.4240    -0.3210 h1         1 32C       0.048200
     52 H15          2.7960    -0.1640     0.8270 h1         1 32C       0.048200
     53 H16          0.7530    -0.7430     0.8490 h1         1 32C       0.057700
     54 H17         -0.9810    -2.2480    -0.1350 hc         1 32C       0.054700
     55 H18         -0.3730    -1.9080    -1.7300 hc         1 32C       0.054700
     56 H19          1.8310    -2.9480    -1.0590 hc         1 32C       0.043700
     57 H20          1.9220    -4.3170     1.0040 hc         1 32C       0.030533
     58 H21          1.7030    -2.6280     1.4230 hc         1 32C       0.030533
     59 H22          0.3310    -3.7310     1.4840 hc         1 32C       0.030533
     60 H23          0.0660    -4.2380    -2.2490 hc         1 32C       0.030533
     61 H24          0.9750    -5.2680    -1.1460 hc         1 32C       0.030533
     62 H25         -0.6360    -4.7060    -0.7000 hc         1 32C       0.030533
     63 H26          0.1970     1.6380    -1.7740 ha         1 32C       0.124000
     64 H27         -1.6340     3.2450    -1.8120 ha         1 32C       0.154000
     65 H28         -5.4940     0.7450     3.3880 ha         1 32C       0.143000
     66 H29         -7.4470    -0.7490     3.1850 ha         1 32C       0.119000
     67 H30         -7.8310    -2.0470     1.1110 ha         1 32C       0.130000
     68 H31         -4.2900    -0.3320    -0.5920 ha         1 32C       0.160000
@<TRIPOS>BOND
     1     1     2 1   
     2     1    39 1   
     3     1    40 1   
     4     1    41 1   
     5     2     3 2   
     6     2     8 1   
     7     3     4 1   
     8     3    42 1   
     9     4     5 1   
    10     4    10 1   
    11     5     6 2   
    12     5     7 1   
    13     7     8 1   
    14     7    43 1   
    15     8     9 2   
    16    10    11 1   
    17    10    15 1   
    18    10    44 1   
    19    11    12 1   
    20    11    45 1   
    21    11    46 1   
    22    12    13 1   
    23    12    47 1   
    24    12    48 1   
    25    13    14 1   
    26    13    49 1   
    27    13    50 1   
    28    14    15 1   
    29    14    16 1   
    30    15    51 1   
    31    15    52 1   
    32    16    17 1   
    33    16    21 1   
    34    16    53 1   
    35    17    18 1   
    36    17    54 1   
    37    17    55 1   
    38    18    19 1   
    39    18    20 1   
    40    18    56 1   
    41    19    57 1   
    42    19    58 1   
    43    19    59 1   
    44    20    60 1   
    45    20    61 1   
    46    20    62 1   
    47    21    22 ar  
    48    21    26 ar  
    49    22    23 ar  
    50    22    63 1   
    51    23    24 ar  
    52    23    64 1   
    53    24    25 ar  
    54    24    35 1   
    55    25    26 ar  
    56    25    28 1   
    57    26    27 1   
    58    28    29 1   
    59    29    30 ar  
    60    29    34 ar  
    61    30    31 ar  
    62    30    65 1   
    63    31    32 ar  
    64    31    66 1   
    65    32    33 ar  
    66    32    67 1   
    67    33    34 ar  
    68    33    38 1   
    69    34    68 1   
    70    35    36 1   
    71    35    37 1   
@<TRIPOS>SUBSTRUCTURE
     1 32C         1 TEMP              0 ****  ****    0 ROOT
