@<TRIPOS>MOLECULE
32D
   48    52     1     0     0
SMALL
abcg2


@<TRIPOS>ATOM
      1 C1           4.3790    -1.2820    -1.5560 ca         1 32D      -0.069000
      2 C2           3.0650    -0.8260    -1.5400 ca         1 32D      -0.102000
      3 C3           2.3780    -0.8640    -0.3410 ca         1 32D      -0.063300
      4 C4           2.9780    -1.3260     0.8210 ca         1 32D      -0.243900
      5 C5           4.2850    -1.7740     0.7800 ca         1 32D       0.213000
      6 C6           4.9960    -1.7580    -0.4040 ca         1 32D      -0.153000
      7 F7           4.8740    -2.2220     1.8970 f          1 32D      -0.174000
      8 C8           1.9740    -1.1790     1.8880 ce         1 32D       0.697800
      9 N9           0.8730    -0.6650     1.4630 n2         1 32D      -0.679900
     10 C10          0.9670    -0.4410     0.0310 c5         1 32D       0.278100
     11 C11         -0.1300    -1.2590    -0.6420 ca         1 32D      -0.064300
     12 C12          0.1190    -2.3100    -1.5120 ca         1 32D      -0.095000
     13 C13         -0.9370    -3.0290    -2.0630 ca         1 32D      -0.114000
     14 C14         -2.2450    -2.7070    -1.7510 ca         1 32D      -0.092000
     15 C15         -2.5140    -1.6530    -0.8740 cp         1 32D      -0.038000
     16 C16         -1.4500    -0.9430    -0.3290 ca         1 32D      -0.064000
     17 C17         -3.8990    -1.3000    -0.5290 cp         1 32D      -0.135000
     18 C18         -4.9340    -1.3470    -1.4600 ca         1 32D       0.113400
     19 N19         -6.1840    -1.0320    -1.1560 nb         1 32D      -0.171500
     20 C20         -6.4170    -0.6570     0.0930 ca         1 32D       0.115900
     21 N21         -5.5190    -0.5740     1.0630 nb         1 32D      -0.171500
     22 C22         -4.2730    -0.8980     0.7500 ca         1 32D       0.113400
     23 C24          0.8080     1.0360    -0.3100 ca         1 32D      -0.029300
     24 C25          0.5240     1.4420    -1.6080 ca         1 32D      -0.142000
     25 C26          0.4470     2.7960    -1.8890 ca         1 32D       0.333900
     26 N27          0.6210     3.7400    -0.9750 nb         1 32D      -0.648000
     27 C28          0.8770     3.3490     0.2660 ca         1 32D       0.255300
     28 C29          0.9840     2.0210     0.6520 ca         1 32D      -0.096000
     29 C30          1.0030     4.4770     1.2500 c3         1 32D       0.134000
     30 F31         -0.2420     4.8550     1.6630 f          1 32D      -0.118000
     31 F32          1.6760     4.0850     2.3620 f          1 32D      -0.118000
     32 N34          2.1800    -1.5760     3.1540 nv         1 32D      -1.027200
     33 H1           4.9390    -1.2700    -2.4810 ha         1 32D       0.123000
     34 H2           2.6060    -0.4600    -2.4480 ha         1 32D       0.130000
     35 H6           6.0190    -2.1090    -0.4280 ha         1 32D       0.138000
     36 H341         3.1120    -1.7500     3.4870 hn         1 32D       0.493000
     37 H342         1.5090    -1.3040     3.8520 hn         1 32D       0.493000
     38 H12          1.1320    -2.5890    -1.7690 ha         1 32D       0.118000
     39 H16         -1.6500    -0.1150     0.3410 ha         1 32D       0.131000
     40 H13         -0.7320    -3.8510    -2.7350 ha         1 32D       0.117000
     41 H14         -3.0560    -3.2870    -2.1710 ha         1 32D       0.117000
     42 H18         -4.7400    -1.6350    -2.4880 h4         1 32D       0.029100
     43 H22         -3.5430    -0.8510     1.5510 h4         1 32D       0.029100
     44 H20         -7.4380    -0.3960     0.3450 h5         1 32D       0.051100
     45 H25          0.3630     0.7250    -2.4030 ha         1 32D       0.129000
     46 H29          1.1940     1.7530     1.6770 ha         1 32D       0.151000
     47 H26          0.2340     3.1300    -2.8980 h4         1 32D       0.025100
     48 H30          1.5020     5.3460     0.8210 h2         1 32D       0.079700
@<TRIPOS>BOND
     1     1     2 ar  
     2     1     6 ar  
     3     1    33 1   
     4     2     3 ar  
     5     2    34 1   
     6     3     4 ar  
     7     3    10 1   
     8     4     5 ar  
     9     4     8 1   
    10     5     6 ar  
    11     5     7 1   
    12     6    35 1   
    13     8     9 2   
    14     8    32 1   
    15     9    10 1   
    16    10    11 1   
    17    10    23 1   
    18    11    12 ar  
    19    11    16 ar  
    20    12    13 ar  
    21    12    38 1   
    22    13    14 ar  
    23    13    40 1   
    24    14    15 ar  
    25    14    41 1   
    26    15    16 ar  
    27    15    17 1   
    28    16    39 1   
    29    17    18 ar  
    30    17    22 ar  
    31    18    19 ar  
    32    18    42 1   
    33    19    20 ar  
    34    20    21 ar  
    35    20    44 1   
    36    21    22 ar  
    37    22    43 1   
    38    23    24 ar  
    39    23    28 ar  
    40    24    25 ar  
    41    24    45 1   
    42    25    26 ar  
    43    25    47 1   
    44    26    27 ar  
    45    27    28 ar  
    46    27    29 1   
    47    28    46 1   
    48    29    30 1   
    49    29    31 1   
    50    29    48 1   
    51    32    36 1   
    52    32    37 1   
@<TRIPOS>SUBSTRUCTURE
     1 32D         1 TEMP              0 ****  ****    0 ROOT
