@<TRIPOS>MOLECULE
32D
   48    52     1     0     0
SMALL
No Charge or Current Charge


@<TRIPOS>ATOM
      1 C1           4.3300    -1.2260    -1.6600 ca         1 32D      -0.069000
      2 C2           2.9940    -0.7850    -1.5470 ca         1 32D      -0.102000
      3 C3           2.3640    -0.8740    -0.2930 ca         1 32D      -0.063300
      4 C4           3.0290    -1.3660     0.7970 ca         1 32D      -0.243900
      5 C5           4.3570    -1.8040     0.7170 ca         1 32D       0.213000
      6 C6           5.0100    -1.7360    -0.5290 ca         1 32D      -0.153000
      7 F7           5.0110    -2.2760     1.8010 f          1 32D      -0.174000
      8 C8           2.0960    -1.2800     1.9120 ce         1 32D       0.697800
      9 N9           0.9570    -0.7460     1.6380 n2         1 32D      -0.679900
     10 C10          0.9640    -0.4720     0.1430 c5         1 32D       0.278100
     11 C11         -0.1450    -1.3270    -0.5070 ca         1 32D      -0.064300
     12 C12          0.1320    -2.4890    -1.2640 ca         1 32D      -0.095000
     13 C13         -0.9100    -3.2330    -1.8380 ca         1 32D      -0.114000
     14 C14         -2.2440    -2.8380    -1.6600 ca         1 32D      -0.092000
     15 C15         -2.5660    -1.6930    -0.8930 cp         1 32D      -0.038000
     16 C16         -1.4960    -0.9580    -0.3230 ca         1 32D      -0.064000
     17 C17         -3.9900    -1.2720    -0.6910 cp         1 32D      -0.135000
     18 C18         -5.0040    -1.5480    -1.6450 ca         1 32D       0.113400
     19 N19         -6.2860    -1.1700    -1.4690 nb         1 32D      -0.171500
     20 C20         -6.5670    -0.5090    -0.3270 ca         1 32D       0.115900
     21 N21         -5.6970    -0.1890     0.6520 nb         1 32D      -0.171500
     22 C22         -4.4160    -0.5700     0.4660 ca         1 32D       0.113400
     23 C24          0.7710     1.0240    -0.1870 ca         1 32D      -0.029300
     24 C25          0.3470     1.4420    -1.4670 ca         1 32D      -0.142000
     25 C26          0.1930     2.8100    -1.7420 ca         1 32D       0.333900
     26 N27          0.4420     3.7770    -0.8320 nb         1 32D      -0.648000
     27 C28          0.8600     3.3950     0.3990 ca         1 32D       0.255300
     28 C29          1.0380     2.0430     0.7540 ca         1 32D      -0.096000
     29 C30          1.1420     4.5080     1.4080 c3         1 32D       0.134000
     30 F31          0.3630     4.3950     2.5090 f          1 32D      -0.118000
     31 F32          2.4280     4.4840     1.8330 f          1 32D      -0.118000
     32 N34          2.4860    -1.6110     3.1610 nv         1 32D      -1.027200
     33 H1           4.8390    -1.1710    -2.6200 ha         1 32D       0.123000
     34 H2           2.4670    -0.3890    -2.4110 ha         1 32D       0.130000
     35 H6           6.0400    -2.0710    -0.6160 ha         1 32D       0.138000
     36 H341         3.4870    -1.6630     3.3030 hn         1 32D       0.493000
     37 H342         1.9440    -1.1860     3.9030 hn         1 32D       0.493000
     38 H12          1.1530    -2.8310    -1.4130 ha         1 32D       0.118000
     39 H16         -1.7160    -0.0720     0.2670 ha         1 32D       0.131000
     40 H13         -0.6820    -4.1240    -2.4190 ha         1 32D       0.117000
     41 H14         -3.0320    -3.4400    -2.1050 ha         1 32D       0.117000
     42 H18         -4.7830    -2.0700    -2.5740 h4         1 32D       0.029100
     43 H22         -3.7230    -0.3190     1.2670 h4         1 32D       0.029100
     44 H20         -7.6020    -0.2030    -0.1810 h5         1 32D       0.051100
     45 H25          0.1350     0.7200    -2.2500 ha         1 32D       0.129000
     46 H29          1.3830     1.8020     1.7550 ha         1 32D       0.151000
     47 H26         -0.1370     3.1430    -2.7260 h4         1 32D       0.025100
     48 H30          0.9510     5.4840     0.9510 h2         1 32D       0.079700
@<TRIPOS>BOND
     1     1     2 ar  
     2     1     6 ar  
     3     1    33 1   
     4     2     3 ar  
     5     2    34 1   
     6     3     4 ar  
     7     3    10 1   
     8     4     5 ar  
     9     4     8 1   
    10     5     6 ar  
    11     5     7 1   
    12     6    35 1   
    13     8     9 2   
    14     8    32 1   
    15     9    10 1   
    16    10    11 1   
    17    10    23 1   
    18    11    12 ar  
    19    11    16 ar  
    20    12    13 ar  
    21    12    38 1   
    22    13    14 ar  
    23    13    40 1   
    24    14    15 ar  
    25    14    41 1   
    26    15    16 ar  
    27    15    17 1   
    28    16    39 1   
    29    17    18 ar  
    30    17    22 ar  
    31    18    19 ar  
    32    18    42 1   
    33    19    20 ar  
    34    20    21 ar  
    35    20    44 1   
    36    21    22 ar  
    37    22    43 1   
    38    23    24 ar  
    39    23    28 ar  
    40    24    25 ar  
    41    24    45 1   
    42    25    26 ar  
    43    25    47 1   
    44    26    27 ar  
    45    27    28 ar  
    46    27    29 1   
    47    28    46 1   
    48    29    30 1   
    49    29    31 1   
    50    29    48 1   
    51    32    36 1   
    52    32    37 1   
@<TRIPOS>SUBSTRUCTURE
     1 32D         1 TEMP              0 ****  ****    0 ROOT
