@<TRIPOS>MOLECULE
32E
   68    71     1     0     0
SMALL
No Charge or Current Charge


@<TRIPOS>ATOM
      1 C31          0.0590    -4.0930    -3.0910 ca         1 32E      -0.081000
      2 C23          3.7760    -0.1080     1.5430 ca         1 32E      -0.099000
      3 C22          3.1240     1.0910     1.2130 ca         1 32E      -0.104000
      4 C30          1.2700    -3.4550    -2.7720 ca         1 32E      -0.144000
      5 C32         -0.9590    -4.1750    -2.1260 ca         1 32E      -0.163000
      6 C34          0.4370    -2.9700    -0.5340 ca         1 32E      -0.158000
      7 C24          3.6120    -1.2620     0.7500 ca         1 32E      -0.091600
      8 C21          2.2850     1.1710     0.0800 ca         1 32E      -0.191300
      9 C29          1.4580    -2.8880    -1.5000 ca         1 32E       0.208100
     10 C25          2.7780    -1.1950    -0.3860 ca         1 32E       0.064100
     11 C26          2.1210     0.0130    -0.7160 ca         1 32E       0.137000
     12 C33         -0.7660    -3.6200    -0.8500 ca         1 32E       0.159000
     13 C3          -4.2760     1.4560     0.1240 cc         1 32E       0.002600
     14 C2          -5.2940     0.5570    -0.1070 cd         1 32E      -0.284400
     15 C8          -5.1760    -0.8390     0.3760 c          1 32E       0.591200
     16 C5          -2.9840    -0.2540     1.2900 c          1 32E       0.614000
     17 C12         -0.7200     3.5230     2.6400 c6         1 32E      -0.075400
     18 C11         -1.8350     2.4590     2.5130 c6         1 32E      -0.089400
     19 C13          0.5860     3.0560     1.9470 c6         1 32E       0.172800
     20 C15         -0.6810     1.6820     0.3380 c6         1 32E       0.161800
     21 C10         -2.0240     2.0640     1.0260 c6         1 32E       0.120700
     22 C1          -6.5660     0.9100    -0.8450 c3         1 32E      -0.012900
     23 C19          3.0170     6.1740    -0.7420 c3         1 32E      -0.085600
     24 C20          1.4010     4.9580    -2.2860 c3         1 32E      -0.085600
     25 C17          2.5760     3.6870    -0.3610 c3         1 32E      -0.064400
     26 C16          1.5830     2.4880    -0.3030 c3         1 32E       0.260800
     27 N7          -4.0180    -1.0950     1.0330 ns         1 32E      -0.465500
     28 N4          -3.1190     1.0710     0.8110 n          1 32E      -0.305000
     29 N14          0.3540     2.7480     0.5040 n3         1 32E      -0.750600
     30 O37          3.6830    -3.5660     1.2300 o          1 32E      -0.698000
     31 O38          5.5240    -2.4590     1.3880 o          1 32E      -0.698000
     32 O28          2.6660    -2.2910    -1.2160 os         1 32E      -0.216200
     33 F27          1.3480     0.0640    -1.8280 f          1 32E      -0.193000
     34 Cl          -2.0340    -3.7640     0.3590 cl         1 32E      -0.236000
     35 H1          -0.0870    -4.5280    -4.0770 ha         1 32E       0.101000
     36 H2           4.4170    -0.1430     2.4210 ha         1 32E       0.137000
     37 H3           3.2770     1.9580     1.8500 ha         1 32E       0.095000
     38 H4           2.0640    -3.3960    -3.5120 ha         1 32E       0.124000
     39 H5          -1.8950    -4.6760    -2.3630 ha         1 32E       0.114000
     40 H6           0.5810    -2.5530     0.4580 ha         1 32E       0.146000
     41 H7          -4.2750     2.4950    -0.1920 h4         1 32E       0.199000
     42 H8          -1.0530     4.4680     2.1900 hc         1 32E       0.041200
     43 H9          -0.5220     3.7330     3.6990 hc         1 32E       0.041200
     44 H10         -1.5670     1.5830     3.1160 hc         1 32E       0.057700
     45 H11         -2.7770     2.8500     2.9220 hc         1 32E       0.057700
     46 H12          1.3330     3.8520     2.0660 h1         1 32E       0.042200
     47 H13          0.9660     2.1690     2.4750 h1         1 32E       0.042200
     48 H14         -0.3110     0.7350     0.7540 h1         1 32E       0.061700
     49 H15         -0.8790     1.5060    -0.7300 h1         1 32E       0.061700
     50 H16         -2.3340     2.9900     0.5230 h1         1 32E       0.054700
     51 H17         -6.6870     0.2920    -1.7430 hc         1 32E       0.040700
     52 H18         -7.4480     0.7560    -0.2100 hc         1 32E       0.040700
     53 H19         -6.5680     1.9590    -1.1640 hc         1 32E       0.040700
     54 H20          2.5750     7.1350    -1.0340 hc         1 32E       0.028367
     55 H21          3.3800     6.2710     0.2890 hc         1 32E       0.028367
     56 H22          3.8780     5.9800    -1.3920 hc         1 32E       0.028367
     57 H23          2.1670     4.6260    -2.9970 hc         1 32E       0.028367
     58 H24          0.5560     4.2610    -2.3360 hc         1 32E       0.028367
     59 H25          1.0350     5.9400    -2.6100 hc         1 32E       0.028367
     60 H26          3.0270     3.8440     0.6240 hc         1 32E       0.044700
     61 H27          3.4040     3.4110    -1.0270 hc         1 32E       0.044700
     62 H28          1.2520     2.3680    -1.3420 h1         1 32E       0.064700
     63 H29          1.1480     5.3000    -0.1810 hc         1 32E       0.051700
     64 H30         -3.9020    -2.0380     1.3650 hn         1 32E       0.344500
     65 C18          1.9760     5.0370    -0.8510 c3         1 32E      -0.056700
     66 O9          -6.0210    -1.7050     0.2180 o          1 32E      -0.545000
     67 C36          4.3310    -2.5340     1.1240 c          1 32E       0.717600
     68 O6          -2.0120    -0.6590     1.9040 o          1 32E      -0.535000
@<TRIPOS>BOND
     1     1     4 ar  
     2     1     5 ar  
     3     1    35 1   
     4     2     3 ar  
     5     2     7 ar  
     6     2    36 1   
     7     3     8 ar  
     8     3    37 1   
     9     4     9 ar  
    10     4    38 1   
    11     5    12 ar  
    12     5    39 1   
    13     6     9 ar  
    14     6    12 ar  
    15     6    40 1   
    16     7    10 ar  
    17     7    67 1   
    18     8    11 ar  
    19     8    26 1   
    20     9    32 1   
    21    10    11 ar  
    22    10    32 1   
    23    11    33 1   
    24    12    34 1   
    25    13    14 2   
    26    13    28 1   
    27    13    41 1   
    28    14    15 1   
    29    14    22 1   
    30    15    27 1   
    31    15    66 2   
    32    16    27 1   
    33    16    28 1   
    34    16    68 2   
    35    17    18 1   
    36    17    19 1   
    37    17    42 1   
    38    17    43 1   
    39    18    21 1   
    40    18    44 1   
    41    18    45 1   
    42    19    29 1   
    43    19    46 1   
    44    19    47 1   
    45    20    21 1   
    46    20    29 1   
    47    20    48 1   
    48    20    49 1   
    49    21    28 1   
    50    21    50 1   
    51    22    51 1   
    52    22    52 1   
    53    22    53 1   
    54    23    54 1   
    55    23    55 1   
    56    23    56 1   
    57    23    65 1   
    58    24    57 1   
    59    24    58 1   
    60    24    59 1   
    61    24    65 1   
    62    25    26 1   
    63    25    60 1   
    64    25    61 1   
    65    25    65 1   
    66    26    29 1   
    67    26    62 1   
    68    27    64 1   
    69    30    67 1   
    70    31    67 1   
    71    63    65 1   
@<TRIPOS>SUBSTRUCTURE
     1 32E         1 TEMP              0 ****  ****    0 ROOT
