@<TRIPOS>MOLECULE
32E
   68    71     1     0     0
SMALL
abcg2


@<TRIPOS>ATOM
      1 C31          0.2890    -4.7210    -2.6010 ca         1 32E      -0.081000
      2 C23          3.7850    -0.1600     1.2250 ca         1 32E      -0.099000
      3 C22          3.1380     1.0380     0.9780 ca         1 32E      -0.104000
      4 C30          1.3710    -3.8590    -2.5780 ca         1 32E      -0.144000
      5 C32         -0.6740    -4.6910    -1.6000 ca         1 32E      -0.163000
      6 C34          0.5520    -2.8920    -0.5230 ca         1 32E      -0.158000
      7 C24          3.5840    -1.2830     0.4230 ca         1 32E      -0.091600
      8 C21          2.2680     1.1910    -0.1020 ca         1 32E      -0.191300
      9 C29          1.5000    -2.9440    -1.5380 ca         1 32E       0.208100
     10 C25          2.7380    -1.1370    -0.6690 ca         1 32E       0.064100
     11 C26          2.1080     0.0790    -0.9100 ca         1 32E       0.137000
     12 C33         -0.5200    -3.7700    -0.5780 ca         1 32E       0.159000
     13 C3          -4.0790     1.5860    -0.0100 cc         1 32E       0.002600
     14 C2          -5.1480     0.8390    -0.3410 cd         1 32E      -0.284400
     15 C8          -5.2160    -0.5090     0.1790 c          1 32E       0.591200
     16 C5          -3.0560    -0.1000     1.3270 c          1 32E       0.614000
     17 C12         -0.5930     3.4460     2.6290 c6         1 32E      -0.075400
     18 C11         -1.7390     2.4460     2.5170 c6         1 32E      -0.089400
     19 C13          0.6560     2.9160     1.9400 c6         1 32E       0.172800
     20 C15         -0.6370     1.6200     0.3980 c6         1 32E       0.161800
     21 C10         -1.9360     2.0950     1.0480 c6         1 32E       0.120700
     22 C1          -6.2540     1.3410    -1.2090 c3         1 32E      -0.012900
     23 C19          2.7530     6.1610    -0.5600 c3         1 32E      -0.085600
     24 C20          0.8810     5.0810    -1.8360 c3         1 32E      -0.085600
     25 C17          2.4280     3.6920    -0.3790 c3         1 32E      -0.064400
     26 C16          1.4980     2.4780    -0.3580 c3         1 32E       0.260800
     27 N7          -4.1460    -0.8610     0.9780 ns         1 32E      -0.465500
     28 N4          -3.0510     1.1680     0.7920 n          1 32E      -0.305000
     29 N14          0.3660     2.6560     0.5420 n3         1 32E      -0.750600
     30 O37          3.6740    -3.6410     0.4390 o          1 32E      -0.698000
     31 O38          5.3490    -2.5060     1.3810 o          1 32E      -0.698000
     32 O28          2.5740    -2.1240    -1.6000 os         1 32E      -0.216200
     33 F27          1.3110     0.1430    -1.9910 f          1 32E      -0.193000
     34 CL          -1.7000    -3.7180     0.6930 cl         1 32E      -0.236000
     35 H1           0.1910    -5.4310    -3.4110 ha         1 32E       0.101000
     36 H2           4.4580    -0.2350     2.0670 ha         1 32E       0.137000
     37 H3           3.3270     1.8770     1.6350 ha         1 32E       0.095000
     38 H4           2.1150    -3.8890    -3.3640 ha         1 32E       0.124000
     39 H5          -1.5190    -5.3640    -1.6190 ha         1 32E       0.114000
     40 H6           0.6380    -2.1900     0.2960 ha         1 32E       0.146000
     41 H7          -3.9840     2.5990    -0.3750 h4         1 32E       0.199000
     42 H8          -0.8730     4.3990     2.1720 hc         1 32E       0.041200
     43 H9          -0.3750     3.6430     3.6810 hc         1 32E       0.041200
     44 H10         -1.4880     1.5540     3.0910 hc         1 32E       0.057700
     45 H11         -2.6610     2.8600     2.9300 hc         1 32E       0.057700
     46 H12          1.4500     3.6600     2.0220 h1         1 32E       0.042200
     47 H13          1.0060     2.0150     2.4710 h1         1 32E       0.042200
     48 H14         -0.3190     0.6660     0.8420 h1         1 32E       0.061700
     49 H15         -0.8190     1.4470    -0.6650 h1         1 32E       0.061700
     50 H16         -2.2170     3.0150     0.5300 h1         1 32E       0.054700
     51 H17         -6.3860     0.7150    -2.0920 hc         1 32E       0.040700
     52 H18         -7.2060     1.3520    -0.6760 hc         1 32E       0.040700
     53 H19         -6.0500     2.3560    -1.5470 hc         1 32E       0.040700
     54 H20          2.2730     7.1380    -0.6410 hc         1 32E       0.028367
     55 H21          3.3440     6.1560     0.3580 hc         1 32E       0.028367
     56 H22          3.4440     6.0600    -1.4010 hc         1 32E       0.028367
     57 H23          1.4900     4.8760    -2.7210 hc         1 32E       0.028367
     58 H24          0.0670     4.3550    -1.8130 hc         1 32E       0.028367
     59 H25          0.4320     6.0670    -1.9670 hc         1 32E       0.028367
     60 H26          3.0370     3.7320     0.5280 hc         1 32E       0.044700
     61 H27          3.1390     3.5410    -1.1990 hc         1 32E       0.044700
     62 H28          1.0570     2.4090    -1.3550 h1         1 32E       0.064700
     63 H29          1.0480     5.1890     0.2840 hc         1 32E       0.051700
     64 H30         -4.1470    -1.7990     1.3570 hn         1 32E       0.344500
     65 C18          1.7220     5.0360    -0.5650 c3         1 32E      -0.056700
     66 O9          -6.1170    -1.3010    -0.0400 o          1 32E      -0.545000
     67 C36          4.2680    -2.6030     0.7700 c          1 32E       0.717600
     68 O6          -2.1860    -0.5380     2.0500 o          1 32E      -0.535000
@<TRIPOS>BOND
     1     1     4 ar  
     2     1     5 ar  
     3     1    35 1   
     4     2     3 ar  
     5     2     7 ar  
     6     2    36 1   
     7     3     8 ar  
     8     3    37 1   
     9     4     9 ar  
    10     4    38 1   
    11     5    12 ar  
    12     5    39 1   
    13     6     9 ar  
    14     6    12 ar  
    15     6    40 1   
    16     7    10 ar  
    17     7    67 1   
    18     8    11 ar  
    19     8    26 1   
    20     9    32 1   
    21    10    11 ar  
    22    10    32 1   
    23    11    33 1   
    24    12    34 1   
    25    13    14 2   
    26    13    28 1   
    27    13    41 1   
    28    14    15 1   
    29    14    22 1   
    30    15    27 1   
    31    15    66 2   
    32    16    27 1   
    33    16    28 1   
    34    16    68 2   
    35    17    18 1   
    36    17    19 1   
    37    17    42 1   
    38    17    43 1   
    39    18    21 1   
    40    18    44 1   
    41    18    45 1   
    42    19    29 1   
    43    19    46 1   
    44    19    47 1   
    45    20    21 1   
    46    20    29 1   
    47    20    48 1   
    48    20    49 1   
    49    21    28 1   
    50    21    50 1   
    51    22    51 1   
    52    22    52 1   
    53    22    53 1   
    54    23    54 1   
    55    23    55 1   
    56    23    56 1   
    57    23    65 1   
    58    24    57 1   
    59    24    58 1   
    60    24    59 1   
    61    24    65 1   
    62    25    26 1   
    63    25    60 1   
    64    25    61 1   
    65    25    65 1   
    66    26    29 1   
    67    26    62 1   
    68    27    64 1   
    69    30    67 1   
    70    31    67 1   
    71    63    65 1   
@<TRIPOS>SUBSTRUCTURE
     1 32E         1 TEMP              0 ****  ****    0 ROOT
