@<TRIPOS>MOLECULE
32F
   33    35     1     0     0
SMALL
abcg2


@<TRIPOS>ATOM
      1 O22         -7.3250    -0.8470    -0.0550 o          1 32F      -0.706500
      2 C20         -6.4770     0.0600     0.0500 c          1 32F       0.730000
      3 O21         -6.6660     1.2670     0.2560 o          1 32F      -0.706500
      4 C18         -5.0310    -0.4370    -0.1090 c3         1 32F      -0.003400
      5 C8           1.4460    -0.1050     0.0200 cc         1 32F       0.601500
      6 N11          1.9650    -1.3570     0.2000 ns         1 32F      -0.426400
      7 C10          3.3090    -1.6540     0.2230 c          1 32F       0.578600
      8 O19          3.6980    -2.7980     0.3770 o          1 32F      -0.557000
      9 C12          4.1600    -0.4830     0.0640 ca         1 32F      -0.220600
     10 C17          5.5520    -0.6010     0.0860 ca         1 32F      -0.037000
     11 C16          6.3400     0.5200    -0.0500 ca         1 32F      -0.154000
     12 C15          5.7410     1.7760    -0.2090 ca         1 32F      -0.078000
     13 C14          4.3700     1.9050    -0.2320 ca         1 32F      -0.115000
     14 C13          3.5520     0.7730    -0.0940 ca         1 32F       0.211400
     15 N9           2.1910     0.9370    -0.1250 nd         1 32F      -0.658100
     16 C3          -0.5850     1.2880     0.2530 ca         1 32F      -0.029500
     17 C2          -1.9500     1.4590     0.2640 ca         1 32F      -0.206500
     18 C1          -2.8050     0.3760     0.0190 ca         1 32F       0.209100
     19 C4          -2.2480    -0.8760    -0.2470 ca         1 32F      -0.206500
     20 O2          -4.1140     0.6310     0.0610 os         1 32F      -0.279100
     21 C5          -0.0150     0.0340     0.0060 ca         1 32F      -0.252900
     22 C6          -0.8710    -1.0340    -0.2500 ca         1 32F      -0.029500
     23 H181        -4.8380    -1.2260     0.6280 h1         1 32F       0.022700
     24 H182        -4.9150    -0.8880    -1.1020 h1         1 32F       0.022700
     25 H11          1.3380    -2.1340     0.3630 hn         1 32F       0.333500
     26 H17          6.0040    -1.5770     0.2120 ha         1 32F       0.128000
     27 H16          7.4180     0.4330    -0.0350 ha         1 32F       0.110000
     28 H15          6.3630     2.6550    -0.3150 ha         1 32F       0.108000
     29 H14          3.9040     2.8740    -0.3570 ha         1 32F       0.130000
     30 H6          -0.4880    -2.0190    -0.4860 ha         1 32F       0.109500
     31 H4          -2.8670    -1.7360    -0.4570 ha         1 32F       0.132500
     32 H2          -2.3740     2.4330     0.4720 ha         1 32F       0.132500
     33 H3           0.0580     2.1350     0.4510 ha         1 32F       0.109500
@<TRIPOS>BOND
     1     1     2 1   
     2     2     3 1   
     3     2     4 1   
     4     4    20 1   
     5     4    23 1   
     6     4    24 1   
     7     5     6 1   
     8     5    15 2   
     9     5    21 1   
    10     6     7 1   
    11     6    25 1   
    12     7     8 2   
    13     7     9 1   
    14     9    10 ar  
    15     9    14 ar  
    16    10    11 ar  
    17    10    26 1   
    18    11    12 ar  
    19    11    27 1   
    20    12    13 ar  
    21    12    28 1   
    22    13    14 ar  
    23    13    29 1   
    24    14    15 1   
    25    16    17 ar  
    26    16    21 ar  
    27    16    33 1   
    28    17    18 ar  
    29    17    32 1   
    30    18    19 ar  
    31    18    20 1   
    32    19    22 ar  
    33    19    31 1   
    34    21    22 ar  
    35    22    30 1   
@<TRIPOS>SUBSTRUCTURE
     1 32F         1 TEMP              0 ****  ****    0 ROOT
