@<TRIPOS>MOLECULE
32F
   33    35     1     0     0
SMALL
No Charge or Current Charge


@<TRIPOS>ATOM
      1 O22         -7.4640    -0.8550    -0.3860 o          1 32F      -0.706500
      2 C20         -6.6040    -0.0300    -0.1030 c          1 32F       0.730000
      3 O21         -6.8690     1.1130     0.2520 o          1 32F      -0.706500
      4 C18         -5.1180    -0.4770    -0.2060 c3         1 32F      -0.003400
      5 C8           1.4730    -0.0360     0.0960 cc         1 32F       0.601500
      6 N11          1.9700    -1.2860     0.3400 ns         1 32F      -0.426400
      7 C10          3.2790    -1.6100     0.3590 c          1 32F       0.578600
      8 O19          3.6580    -2.7500     0.5810 o          1 32F      -0.557000
      9 C12          4.1840    -0.4690     0.0950 ca         1 32F      -0.220600
     10 C17          5.5850    -0.6370     0.0760 ca         1 32F      -0.037000
     11 C16          6.4210     0.4630    -0.1710 ca         1 32F      -0.154000
     12 C15          5.8610     1.7290    -0.3970 ca         1 32F      -0.078000
     13 C14          4.4650     1.8900    -0.3760 ca         1 32F      -0.115000
     14 C13          3.6130     0.7970    -0.1320 ca         1 32F       0.211400
     15 N9           2.2300     1.0400    -0.1300 nd         1 32F      -0.658100
     16 C3          -0.5960     1.3170     0.4830 ca         1 32F      -0.029500
     17 C2          -1.9940     1.4520     0.4880 ca         1 32F      -0.206500
     18 C1          -2.8170     0.3760     0.1280 ca         1 32F       0.209100
     19 C4          -2.2270    -0.8470    -0.2490 ca         1 32F      -0.206500
     20 O2          -4.1830     0.5700     0.1500 os         1 32F      -0.279100
     21 C5           0.0070     0.0870     0.1350 ca         1 32F      -0.252900
     22 C6          -0.8280    -0.9880    -0.2530 ca         1 32F      -0.029500
     23 H181        -4.9860    -1.3430     0.4570 h1         1 32F       0.022700
     24 H182        -4.9420    -0.8060    -1.2380 h1         1 32F       0.022700
     25 H11          1.3250    -2.0320     0.5410 hn         1 32F       0.333500
     26 H17          6.0260    -1.6170     0.2520 ha         1 32F       0.128000
     27 H16          7.5010     0.3340    -0.1860 ha         1 32F       0.110000
     28 H15          6.5050     2.5850    -0.5880 ha         1 32F       0.108000
     29 H14          4.0370     2.8740    -0.5530 ha         1 32F       0.130000
     30 H6          -0.4060    -1.9380    -0.5750 ha         1 32F       0.109500
     31 H4          -2.8360    -1.6950    -0.5470 ha         1 32F       0.132500
     32 H2          -2.4440     2.4000     0.7690 ha         1 32F       0.132500
     33 H3           0.0150     2.1720     0.7660 ha         1 32F       0.109500
@<TRIPOS>BOND
     1     1     2 1   
     2     2     3 1   
     3     2     4 1   
     4     4    20 1   
     5     4    23 1   
     6     4    24 1   
     7     5     6 1   
     8     5    15 2   
     9     5    21 1   
    10     6     7 1   
    11     6    25 1   
    12     7     8 2   
    13     7     9 1   
    14     9    10 ar  
    15     9    14 ar  
    16    10    11 ar  
    17    10    26 1   
    18    11    12 ar  
    19    11    27 1   
    20    12    13 ar  
    21    12    28 1   
    22    13    14 ar  
    23    13    29 1   
    24    14    15 1   
    25    16    17 ar  
    26    16    21 ar  
    27    16    33 1   
    28    17    18 ar  
    29    17    32 1   
    30    18    19 ar  
    31    18    20 1   
    32    19    22 ar  
    33    19    31 1   
    34    21    22 ar  
    35    22    30 1   
@<TRIPOS>SUBSTRUCTURE
     1 32F         1 TEMP              0 ****  ****    0 ROOT
