@<TRIPOS>MOLECULE
32G
   63    67     1     0     0
SMALL
No Charge or Current Charge


@<TRIPOS>ATOM
      1 N1           9.6470    -2.6350     1.7940 nb         1 32G      -0.303000
      2 C2           8.3890    -2.8230     1.3280 ca         1 32G       0.182900
      3 N3           7.6760    -1.9680     0.5570 nb         1 32G      -0.225000
      4 C4           8.2960    -0.8170     0.2270 ca         1 32G       0.121500
      5 C5           9.5710    -0.5260     0.6480 ca         1 32G      -0.101600
      6 C6          10.2340    -1.4780     1.4510 ca         1 32G       0.453900
      7 N6          11.4980    -1.2890     1.9160 nv         1 32G      -1.064900
      8 N7          10.0200     0.7120     0.1880 nc         1 32G      -0.549100
      9 C8           8.9620     1.1530    -0.5200 cd         1 32G       0.400700
     10 N9           7.8850     0.2510    -0.5250 na         1 32G      -0.280300
     11 OAB         -9.9070    -3.5160    -0.2870 o          1 32G      -0.578000
     12 CAE          0.7710     0.6970    -0.7440 cc         1 32G      -0.213000
     13 CAF         -4.0670     0.4110    -1.3170 c3         1 32G      -0.075400
     14 CAG         -2.7240     1.0180    -0.8520 c3         1 32G      -0.073400
     15 CAH         -5.2230     0.6750    -0.3280 c3         1 32G      -0.076400
     16 CAI          4.1000     1.0410    -0.8780 c3         1 32G      -0.095400
     17 CAJ          5.4870     0.9110    -0.2100 c3         1 32G      -0.098400
     18 CAL         -6.5680     0.0680    -0.7930 c3         1 32G      -0.059400
     19 CAM          3.0160     1.5760     0.0830 c3         1 32G       0.082600
     20 CAN          6.5690     0.3740    -1.1700 c3         1 32G       0.086600
     21 CAO         -9.2910    -0.0120     2.1950 c5         1 32G       0.028600
     22 NAS          0.0620     2.6690    -1.5360 nd         1 32G      -0.360000
     23 NAT          1.2500     2.8870    -1.0390 nc         1 32G      -0.207800
     24 NAU        -10.4710    -1.6370     0.8770 ns         1 32G      -0.523900
     25 NAV         -9.0870    -1.4580    -0.8330 ns         1 32G      -0.509900
     26 SAW         -7.5580    -0.5170     1.7840 ss         1 32G      -0.404000
     27 CAX         -9.8240    -2.3190    -0.0950 c          1 32G       0.613000
     28 CAY         -0.2600     1.3380    -1.3690 cd         1 32G       0.208300
     29 CBC         -7.7600     0.3500     0.1610 c5         1 32G       0.073300
     30 NBD          1.6930     1.6940    -0.5510 na         1 32G       0.123800
     31 CBF        -10.1400    -0.2100     0.8940 c5         1 32G       0.103700
     32 CBG         -9.1830    -0.0710    -0.3610 c5         1 32G       0.095700
     33 H2           7.9010    -3.7570     1.6010 h5         1 32G       0.046100
     34 HN6         12.0190    -2.1070     2.2210 hn         1 32G       0.508000
     35 HN6A        12.0360    -0.5370     1.4930 hn         1 32G       0.508000
     36 H8           8.9030     2.0980    -1.0470 h5         1 32G       0.065800
     37 HAE          0.9110    -0.3310    -0.4390 h4         1 32G       0.167000
     38 HAF         -4.3290     0.8270    -2.2980 hc         1 32G       0.037200
     39 HAFA        -3.9460    -0.6710    -1.4490 hc         1 32G       0.037200
     40 HAG         -2.8440     2.1010    -0.7200 hc         1 32G       0.049700
     41 HAGA        -2.4600     0.6040     0.1290 hc         1 32G       0.049700
     42 HAH         -4.9550     0.2620     0.6520 hc         1 32G       0.048200
     43 HAHA        -5.3440     1.7580    -0.1960 hc         1 32G       0.048200
     44 HAI          4.1750     1.7130    -1.7430 hc         1 32G       0.061700
     45 HAIA         3.7890     0.0600    -1.2610 hc         1 32G       0.061700
     46 HAJ          5.8000     1.8910     0.1710 hc         1 32G       0.058200
     47 HAJA         5.4110     0.2400     0.6550 hc         1 32G       0.058200
     48 HAK         -1.4540    -0.3280    -1.9810 hc         1 32G       0.049700
     49 HAKA        -1.8250     1.1700    -2.8200 hc         1 32G       0.049700
     50 HAL         -6.8030     0.4700    -1.7850 hc         1 32G       0.051200
     51 HALA        -6.4350    -1.0140    -0.9190 hc         1 32G       0.051200
     52 HAM          2.9250     0.9010     0.9430 h1         1 32G       0.069200
     53 HAMA         3.3150     2.5610     0.4610 h1         1 32G       0.069200
     54 HAN          6.6610     1.0490    -2.0310 h1         1 32G       0.068200
     55 HANA         6.2670    -0.6110    -1.5490 h1         1 32G       0.068200
     56 HAO         -9.6770    -0.5870     3.0470 h1         1 32G       0.077200
     57 HAOA        -9.2830     1.0470     2.4860 h1         1 32G       0.077200
     58 HNAU       -11.0690    -2.1360     1.5240 hn         1 32G       0.342500
     59 HNAV        -8.5420    -1.8050    -1.6100 hn         1 32G       0.336500
     60 HBC         -7.7710     1.4300     0.3630 h1         1 32G       0.069700
     61 HBF        -11.0250     0.4390     0.8500 h1         1 32G       0.069700
     62 HBG         -9.5760     0.6090    -1.1280 h1         1 32G       0.062700
     63 CAK         -1.5660     0.7540    -1.8390 c3         1 32G      -0.089700
@<TRIPOS>BOND
     1     1     2 ar  
     2     1     6 ar  
     3     2     3 ar  
     4     2    33 1   
     5     3     4 ar  
     6     4     5 ar  
     7     4    10 1   
     8     5     6 ar  
     9     5     8 1   
    10     6     7 1   
    11     7    34 1   
    12     7    35 1   
    13     8     9 2   
    14     9    10 1   
    15     9    36 1   
    16    10    20 1   
    17    11    27 2   
    18    12    28 2   
    19    12    30 1   
    20    12    37 1   
    21    13    14 1   
    22    13    15 1   
    23    13    38 1   
    24    13    39 1   
    25    14    40 1   
    26    14    41 1   
    27    14    63 1   
    28    15    18 1   
    29    15    42 1   
    30    15    43 1   
    31    16    17 1   
    32    16    19 1   
    33    16    44 1   
    34    16    45 1   
    35    17    20 1   
    36    17    46 1   
    37    17    47 1   
    38    18    29 1   
    39    18    50 1   
    40    18    51 1   
    41    19    30 1   
    42    19    52 1   
    43    19    53 1   
    44    20    54 1   
    45    20    55 1   
    46    21    26 1   
    47    21    31 1   
    48    21    56 1   
    49    21    57 1   
    50    22    23 2   
    51    22    28 1   
    52    23    30 1   
    53    24    27 1   
    54    24    31 1   
    55    24    58 1   
    56    25    27 1   
    57    25    32 1   
    58    25    59 1   
    59    26    29 1   
    60    28    63 1   
    61    29    32 1   
    62    29    60 1   
    63    31    32 1   
    64    31    61 1   
    65    32    62 1   
    66    48    63 1   
    67    49    63 1   
@<TRIPOS>SUBSTRUCTURE
     1 32G         1 TEMP              0 ****  ****    0 ROOT
