@<TRIPOS>MOLECULE
32G
   63    67     1     0     0
SMALL
abcg2


@<TRIPOS>ATOM
      1 N1          10.1230    -2.4600     0.7600 nb         1 32G      -0.303000
      2 C2           8.9290    -2.6670     0.2100 ca         1 32G       0.182900
      3 N3           8.0630    -1.7750    -0.2360 nb         1 32G      -0.225000
      4 C4           8.5140    -0.5310    -0.0790 ca         1 32G       0.121500
      5 C5           9.7290    -0.1580     0.4770 ca         1 32G      -0.101600
      6 C6          10.5620    -1.2050     0.9120 ca         1 32G       0.453900
      7 N6          11.7570    -0.9940     1.4660 nv         1 32G      -1.064900
      8 N7           9.8640     1.2060     0.4790 nc         1 32G      -0.549100
      9 C8           8.7590     1.6340    -0.0630 cd         1 32G       0.400700
     10 N9           7.9050     0.6360    -0.4280 na         1 32G      -0.280300
     11 OAB        -10.2910    -3.2900     0.1910 o          1 32G      -0.578000
     12 CAE          0.7890     0.0180    -0.3120 cc         1 32G      -0.213000
     13 CAF         -4.0750     0.0400    -1.1000 c3         1 32G      -0.075400
     14 CAG         -2.7510     0.6360    -0.6400 c3         1 32G      -0.073400
     15 CAH         -5.2770     0.6080    -0.3560 c3         1 32G      -0.076400
     16 CAI          4.1100     0.8910    -0.6020 c3         1 32G      -0.095400
     17 CAJ          5.4840     0.7640     0.0420 c3         1 32G      -0.098400
     18 CAL         -6.5860    -0.0370    -0.7960 c3         1 32G      -0.059400
     19 CAM          3.0140     0.9140     0.4530 c3         1 32G       0.082600
     20 CAN          6.5850     0.7810    -1.0080 c3         1 32G       0.086600
     21 CAO         -9.5540     0.8670     1.7060 c5         1 32G       0.028600
     22 NAS          0.0820     1.9240    -1.1370 nd         1 32G      -0.360000
     23 NAT          1.2520     2.1350    -0.6370 nc         1 32G      -0.207800
     24 NAU        -10.7390    -1.1020     0.7530 ns         1 32G      -0.523900
     25 NAV         -9.1090    -1.4980    -0.6500 ns         1 32G      -0.509900
     26 SAW         -7.8210     0.3430     1.6750 ss         1 32G      -0.404000
     27 CAX        -10.0700    -2.0910     0.1110 c          1 32G       0.613000
     28 CAY         -0.2540     0.6260    -0.9630 cd         1 32G       0.208300
     29 CBC         -7.8160     0.5570    -0.1360 c5         1 32G       0.073300
     30 NBD          1.6910     0.9990    -0.1330 na         1 32G       0.123800
     31 CBF        -10.2260     0.2170     0.4900 c5         1 32G       0.103700
     32 CBG         -9.1440    -0.0580    -0.5970 c5         1 32G       0.095700
     33 H2           8.6340    -3.7070     0.1190 h5         1 32G       0.046100
     34 HN6         12.3360    -1.7700     1.7360 hn         1 32G       0.508000
     35 HN6A        12.1260    -0.0650     1.5680 hn         1 32G       0.508000
     36 H8           8.5070     2.6710    -0.2300 h5         1 32G       0.065800
     37 HAE          0.9470    -0.9940     0.0230 h4         1 32G       0.167000
     38 HAF         -4.1970     0.2100    -2.1750 hc         1 32G       0.037200
     39 HAFA        -4.0480    -1.0470    -0.9660 hc         1 32G       0.037200
     40 HAG         -2.7710     1.7220    -0.7680 hc         1 32G       0.049700
     41 HAGA        -2.6200     0.4550     0.4310 hc         1 32G       0.049700
     42 HAH         -5.1380     0.4630     0.7200 hc         1 32G       0.048200
     43 HAHA        -5.3290     1.6900    -0.5140 hc         1 32G       0.048200
     44 HAI          4.0590     1.8070    -1.1970 hc         1 32G       0.061700
     45 HAIA         3.9420     0.0550    -1.2860 hc         1 32G       0.061700
     46 HAJ          5.6450     1.5850     0.7480 hc         1 32G       0.058200
     47 HAJA         5.5420    -0.1650     0.6150 hc         1 32G       0.058200
     48 HAK         -1.5340    -1.0270    -1.2780 hc         1 32G       0.049700
     49 HAKA        -1.6950     0.2410    -2.4730 hc         1 32G       0.049700
     50 HAL         -6.6960     0.0780    -1.8800 hc         1 32G       0.051200
     51 HALA        -6.5470    -1.1120    -0.6000 hc         1 32G       0.051200
     52 HAM          3.0420     0.0100     1.0600 h1         1 32G       0.069200
     53 HAMA         3.1390     1.7630     1.1250 h1         1 32G       0.069200
     54 HAN          6.5690     1.7160    -1.5690 h1         1 32G       0.068200
     55 HANA         6.4440    -0.0280    -1.7260 h1         1 32G       0.068200
     56 HAO        -10.0230     0.5690     2.6430 h1         1 32G       0.077200
     57 HAOA        -9.6110     1.9540     1.6290 h1         1 32G       0.077200
     58 HNAU       -11.3880    -1.2960     1.4960 hn         1 32G       0.342500
     59 HNAV        -8.7120    -1.9900    -1.4330 hn         1 32G       0.336500
     60 HBC         -7.8550     1.6320    -0.3440 h1         1 32G       0.069700
     61 HBF        -11.0140     0.8750     0.1190 h1         1 32G       0.069700
     62 HBG         -9.4230     0.3670    -1.5650 h1         1 32G       0.062700
     63 CAK         -1.5590     0.0580    -1.4030 c3         1 32G      -0.089700
@<TRIPOS>BOND
     1     1     2 ar  
     2     1     6 ar  
     3     2     3 ar  
     4     2    33 1   
     5     3     4 ar  
     6     4     5 ar  
     7     4    10 1   
     8     5     6 ar  
     9     5     8 1   
    10     6     7 1   
    11     7    34 1   
    12     7    35 1   
    13     8     9 2   
    14     9    10 1   
    15     9    36 1   
    16    10    20 1   
    17    11    27 2   
    18    12    28 2   
    19    12    30 1   
    20    12    37 1   
    21    13    14 1   
    22    13    15 1   
    23    13    38 1   
    24    13    39 1   
    25    14    40 1   
    26    14    41 1   
    27    14    63 1   
    28    15    18 1   
    29    15    42 1   
    30    15    43 1   
    31    16    17 1   
    32    16    19 1   
    33    16    44 1   
    34    16    45 1   
    35    17    20 1   
    36    17    46 1   
    37    17    47 1   
    38    18    29 1   
    39    18    50 1   
    40    18    51 1   
    41    19    30 1   
    42    19    52 1   
    43    19    53 1   
    44    20    54 1   
    45    20    55 1   
    46    21    26 1   
    47    21    31 1   
    48    21    56 1   
    49    21    57 1   
    50    22    23 2   
    51    22    28 1   
    52    23    30 1   
    53    24    27 1   
    54    24    31 1   
    55    24    58 1   
    56    25    27 1   
    57    25    32 1   
    58    25    59 1   
    59    26    29 1   
    60    28    63 1   
    61    29    32 1   
    62    29    60 1   
    63    31    32 1   
    64    31    61 1   
    65    32    62 1   
    66    48    63 1   
    67    49    63 1   
@<TRIPOS>SUBSTRUCTURE
     1 32G         1 TEMP              0 ****  ****    0 ROOT
