@<TRIPOS>MOLECULE
32H
   27    29     1     0     0
SMALL
No Charge or Current Charge


@<TRIPOS>ATOM
      1 C4          47.0880   -82.2700   -40.5200 ca         1 32H      -0.086500
      2 N2          39.9920   -82.3310   -39.3230 n1         1 32H      -0.453000
      3 C7          45.2340   -79.1680   -39.3520 cc         1 32H       0.073000
      4 C6          46.2440   -80.2350   -39.4500 ca         1 32H      -0.026000
      5 C9          42.9750   -80.4460   -39.3470 cc         1 32H       0.331900
      6 C13         45.6670   -77.8570   -39.4600 cd         1 32H      -0.173900
      7 C8          43.8010   -79.2630   -39.4390 cc         1 32H      -0.204800
      8 C1          47.3730   -80.2400   -38.6020 ca         1 32H      -0.076500
      9 C2          48.3460   -81.2500   -38.7070 ca         1 32H      -0.086500
     10 C3          48.2020   -82.2640   -39.6660 ca         1 32H       0.000100
     11 C5          46.1160   -81.2590   -40.4120 ca         1 32H      -0.076500
     12 C10         41.6010   -80.3150   -39.4600 cd         1 32H      -0.258900
     13 C11         40.9580   -78.9880   -39.6520 c          1 32H       0.598200
     14 O1          39.7540   -78.8050   -39.7650 o          1 32H      -0.524000
     15 N1          41.8330   -77.9330   -39.6830 ns         1 32H      -0.345100
     16 C12         43.1970   -78.0450   -39.5750 cd         1 32H       0.016600
     17 S1          44.3370   -76.6950   -39.5880 ss         1 32H       0.253000
     18 Br1         47.4250   -77.1790   -39.6730 br         1 32H      -0.018100
     19 C14         40.6990   -81.4060   -39.3890 ch         1 32H       0.301700
     20 O2          43.5610   -81.6320   -39.0980 oh         1 32H      -0.498100
     21 Br2         49.5240   -83.6380   -39.8110 br         1 32H      -0.103100
     22 H1          46.9790   -83.0510   -41.2680 ha         1 32H       0.134000
     23 H2          47.4870   -79.4710   -37.8420 ha         1 32H       0.124000
     24 H3          49.2070   -81.2460   -38.0430 ha         1 32H       0.134000
     25 H4          45.2700   -81.2610   -41.0950 ha         1 32H       0.124000
     26 H5          41.3970   -77.0260   -39.7970 hn         1 32H       0.346500
     27 H6          42.8430   -82.2950   -39.0340 ho         1 32H       0.497000
@<TRIPOS>BOND
     1     1    10 ar  
     2     1    11 ar  
     3     1    22 1   
     4     2    19 3   
     5     3     4 1   
     6     3     6 2   
     7     3     7 1   
     8     4     8 ar  
     9     4    11 ar  
    10     5     7 1   
    11     5    12 2   
    12     5    20 1   
    13     6    17 1   
    14     6    18 1   
    15     7    16 2   
    16     8     9 ar  
    17     8    23 1   
    18     9    10 ar  
    19     9    24 1   
    20    10    21 1   
    21    11    25 1   
    22    12    13 1   
    23    12    19 1   
    24    13    14 2   
    25    13    15 1   
    26    15    16 1   
    27    15    26 1   
    28    16    17 1   
    29    20    27 1   
@<TRIPOS>SUBSTRUCTURE
     1 32H         1 TEMP              0 ****  ****    0 ROOT
