@<TRIPOS>MOLECULE
32H
   27    29     1     0     0
SMALL
abcg2


@<TRIPOS>ATOM
      1 C4          47.2410   -82.1650   -40.6590 ca         1 32H      -0.086500
      2 N2          40.2080   -82.3780   -39.0130 n1         1 32H      -0.453000
      3 C7          45.2770   -79.1210   -39.6100 cc         1 32H       0.073000
      4 C6          46.2520   -80.2320   -39.5910 ca         1 32H      -0.026000
      5 C9          43.0280   -80.4090   -39.3640 cc         1 32H       0.331900
      6 C13         45.6250   -77.8110   -39.7300 cd         1 32H      -0.173900
      7 C8          43.8370   -79.2570   -39.5490 cc         1 32H      -0.204800
      8 C1          47.1330   -80.3830   -38.5210 ca         1 32H      -0.076500
      9 C2          48.0620   -81.4170   -38.5060 ca         1 32H      -0.086500
     10 C3          48.1010   -82.2970   -39.5770 ca         1 32H       0.000100
     11 C5          46.3170   -81.1290   -40.6580 ca         1 32H      -0.076500
     12 C10         41.6420   -80.2730   -39.3350 cd         1 32H      -0.258900
     13 C11         40.9760   -78.9920   -39.4660 c          1 32H       0.598200
     14 O1          39.7590   -78.8260   -39.4520 o          1 32H      -0.524000
     15 N1          41.8340   -77.9090   -39.6070 ns         1 32H      -0.345100
     16 C12         43.1810   -78.0340   -39.6460 cd         1 32H       0.016600
     17 S1          44.2720   -76.7090   -39.7920 ss         1 32H       0.253000
     18 BR1         47.3550   -77.0980   -39.9020 br         1 32H      -0.018100
     19 C14         40.8310   -81.4160   -39.1600 ch         1 32H       0.301700
     20 O2          43.6410   -81.5780   -39.2140 oh         1 32H      -0.498100
     21 BR2         49.3730   -83.7290   -39.5660 br         1 32H      -0.103100
     22 H1          47.2880   -82.8560   -41.4890 ha         1 32H       0.134000
     23 H2          47.0920   -79.6920   -37.6890 ha         1 32H       0.124000
     24 H3          48.7390   -81.5310   -37.6710 ha         1 32H       0.134000
     25 H4          45.6390   -81.0190   -41.4940 ha         1 32H       0.124000
     26 H5          41.3960   -76.9990   -39.6910 hn         1 32H       0.346500
     27 H6          43.0110   -82.3080   -39.1000 ho         1 32H       0.497000
@<TRIPOS>BOND
     1     1    10 ar  
     2     1    11 ar  
     3     1    22 1   
     4     2    19 3   
     5     3     4 1   
     6     3     6 2   
     7     3     7 1   
     8     4     8 ar  
     9     4    11 ar  
    10     5     7 1   
    11     5    12 2   
    12     5    20 1   
    13     6    17 1   
    14     6    18 1   
    15     7    16 2   
    16     8     9 ar  
    17     8    23 1   
    18     9    10 ar  
    19     9    24 1   
    20    10    21 1   
    21    11    25 1   
    22    12    13 1   
    23    12    19 1   
    24    13    14 2   
    25    13    15 1   
    26    15    16 1   
    27    15    26 1   
    28    16    17 1   
    29    20    27 1   
@<TRIPOS>SUBSTRUCTURE
     1 32H         1 TEMP              0 ****  ****    0 ROOT
