@<TRIPOS>MOLECULE
32I
   55    57     1     0     0
SMALL
bcc


@<TRIPOS>ATOM
      1 N1          -1.4530    -2.1790     0.1000 nh         1 32I      -0.774300
      2 O1           4.7380    -1.4500    -0.8620 o          1 32I      -0.578100
      3 N3           3.9880     0.6440    -0.3010 ns         1 32I      -0.502400
      4 C12          5.1560     1.3780    -0.1830 c2         1 32I       0.670800
      5 N5           6.3010     0.8190    -0.1280 n2         1 32I      -0.836100
      6 N4           4.8900     2.7160    -0.0590 nv         1 32I      -0.981800
      7 C18          2.4200    -1.1100    -0.4860 ca         1 32I       0.084500
      8 N8           1.5140    -0.1620    -0.2560 nb         1 32I      -0.588000
      9 C8           0.2410    -0.4320    -0.1400 cp         1 32I       0.267500
     10 C10         -0.6890     0.7130    -0.1460 cp         1 32I      -0.415100
     11 C13         -1.5630     0.9210    -1.1880 ca         1 32I       0.503200
     12 C15         -0.7000     1.7240     0.8350 ca         1 32I       0.726600
     13 O3           0.1010     1.5800     1.8720 os         1 32I      -0.414100
     14 C17          0.0790     2.5760     2.8930 c3         1 32I       0.131700
     15 N7          -1.4870     2.7730     0.7570 nb         1 32I      -0.820000
     16 C14         -2.2870     2.8480    -0.3010 ca         1 32I       0.918300
     17 N6          -2.3710     1.9770    -1.2850 nb         1 32I      -0.808000
     18 O2          -3.0470     3.9280    -0.3090 os         1 32I      -0.410100
     19 C16         -3.9440     4.1140    -1.3940 c3         1 32I       0.139700
     20 C9           1.9760    -2.4370    -0.7050 ca         1 32I       0.689900
     21 N2           2.7800    -3.4310    -1.0950 nv         1 32I      -0.946500
     22 N9           0.6930    -2.7400    -0.5120 nb         1 32I      -0.842000
     23 C7          -0.1760    -1.8050    -0.1750 ca         1 32I       0.667900
     24 C6          -1.8890    -3.5170    -0.2640 c3         1 32I       0.220800
     25 C1          -3.3660    -3.6060    -0.6400 c3         1 32I      -0.085400
     26 C5          -2.1860    -1.5420     1.1910 c3         1 32I       0.220800
     27 C4          -3.5500    -0.9950     0.7810 c3         1 32I      -0.085400
     28 C3          -4.7030    -1.9970     0.8830 c3         1 32I      -0.071400
     29 C2          -4.3490    -3.4400     0.5180 c3         1 32I      -0.071400
     30 H1           3.1120     1.1130    -0.1010 hn         1 32I       0.351500
     31 H2           7.0300     1.5200    -0.0640 hn         1 32I       0.376400
     32 H3           4.0920     3.0960    -0.5400 hn         1 32I       0.404800
     33 H4           5.6760     3.3420    -0.0870 hn         1 32I       0.404800
     34 H5          -1.6210     0.1990    -1.9960 h4         1 32I       0.032100
     35 H6           0.7770     2.2390     3.6530 h1         1 32I       0.052700
     36 H7           0.3980     3.5460     2.5120 h1         1 32I       0.052700
     37 H8          -0.9110     2.6790     3.3330 h1         1 32I       0.052700
     38 H9          -3.4180     4.1750    -2.3470 h1         1 32I       0.050700
     39 H10         -4.6800     3.3110    -1.4520 h1         1 32I       0.050700
     40 H11         -4.4510     5.0550    -1.2000 h1         1 32I       0.050700
     41 H12          2.4050    -4.3620    -1.1380 hn         1 32I       0.460800
     42 H13          3.7730    -3.2910    -1.1430 hn         1 32I       0.460800
     43 H14         -1.2880    -3.8450    -1.1090 h1         1 32I       0.051950
     44 H15         -1.6850    -4.2200     0.5540 h1         1 32I       0.051950
     45 H16         -3.5890    -2.9050    -1.4500 hc         1 32I       0.049700
     46 H17         -3.5000    -4.6040    -1.0650 hc         1 32I       0.049700
     47 H18         -2.2960    -2.2800     1.9960 h1         1 32I       0.051950
     48 H19         -1.5700    -0.7550     1.6170 h1         1 32I       0.051950
     49 H20         -3.7850    -0.1250     1.3990 hc         1 32I       0.049700
     50 H21         -3.4730    -0.6170    -0.2390 hc         1 32I       0.049700
     51 H22         -5.1060    -1.9890     1.8990 hc         1 32I       0.038700
     52 H23         -5.5160    -1.6470     0.2430 hc         1 32I       0.038700
     53 H24         -5.2750    -3.9670     0.2810 hc         1 32I       0.038700
     54 H25         -3.9430    -3.9600     1.3920 hc         1 32I       0.038700
     55 C11          3.8290    -0.6880    -0.5740 c          1 32I       0.624600
@<TRIPOS>BOND
     1     1    23 1   
     2     1    24 1   
     3     1    26 1   
     4     2    55 2   
     5     3     4 1   
     6     3    30 1   
     7     3    55 1   
     8     4     5 2   
     9     4     6 1   
    10     5    31 1   
    11     6    32 1   
    12     6    33 1   
    13     7     8 ar  
    14     7    20 ar  
    15     7    55 1   
    16     8     9 ar  
    17     9    10 1   
    18     9    23 ar  
    19    10    11 ar  
    20    10    12 ar  
    21    11    17 ar  
    22    11    34 1   
    23    12    13 1   
    24    12    15 ar  
    25    13    14 1   
    26    14    35 1   
    27    14    36 1   
    28    14    37 1   
    29    15    16 ar  
    30    16    17 ar  
    31    16    18 1   
    32    18    19 1   
    33    19    38 1   
    34    19    39 1   
    35    19    40 1   
    36    20    21 1   
    37    20    22 ar  
    38    21    41 1   
    39    21    42 1   
    40    22    23 ar  
    41    24    25 1   
    42    24    43 1   
    43    24    44 1   
    44    25    29 1   
    45    25    45 1   
    46    25    46 1   
    47    26    27 1   
    48    26    47 1   
    49    26    48 1   
    50    27    28 1   
    51    27    49 1   
    52    27    50 1   
    53    28    29 1   
    54    28    51 1   
    55    28    52 1   
    56    29    53 1   
    57    29    54 1   
@<TRIPOS>SUBSTRUCTURE
     1 32I         1 TEMP              0 ****  ****    0 ROOT
