@<TRIPOS>MOLECULE
32I
   55    57     1     0     0
SMALL
No Charge or Current Charge


@<TRIPOS>ATOM
      1 N1          -1.4020    -2.1540     0.2220 nh         1 32I      -0.774300
      2 O1           4.8590    -1.5040    -0.6590 o          1 32I      -0.578100
      3 N3           4.2760     0.6960    -0.5110 ns         1 32I      -0.435400
      4 C12          5.4800     1.3120    -0.6300 c2         1 32I       0.670800
      5 N5           6.5500     0.9650    -0.0730 n2         1 32I      -0.836100
      6 N4           5.2860     2.5150    -1.1790 nv         1 32I      -1.092200
      7 C18          2.5270    -0.9710    -0.2830 ca         1 32I       0.084500
      8 N8           1.6200     0.0610    -0.2460 nb         1 32I      -0.588000
      9 C8           0.3210    -0.3000    -0.0740 cp         1 32I       0.267500
     10 C10         -0.6500     0.8240    -0.1190 cp         1 32I      -0.284500
     11 C13         -1.4170     1.0750    -1.2710 ca         1 32I       0.174900
     12 C15         -0.8840     1.6700     0.9810 ca         1 32I       0.398300
     13 O3          -0.1730     1.4090     2.1320 os         1 32I      -0.437300
     14 C17         -0.3600     2.2020     3.3200 c3         1 32I       0.154900
     15 N7          -1.7880     2.6670     0.9320 nb         1 32I      -0.294000
     16 C14         -2.4680     2.8330    -0.2170 ca         1 32I       0.392300
     17 N6          -2.3180     2.0720    -1.3240 nb         1 32I      -0.282000
     18 O2          -3.3840     3.8620    -0.2290 os         1 32I      -0.433300
     19 C16         -4.2010     4.1320    -1.3870 c3         1 32I       0.162900
     20 C9           2.0910    -2.3270    -0.1470 ca         1 32I       0.689900
     21 N2           2.8390    -3.4360    -0.1460 nv         1 32I      -1.056900
     22 N9           0.8260    -2.7080     0.0010 nb         1 32I      -0.842000
     23 C7          -0.0740    -1.6960     0.0380 ca         1 32I       0.667900
     24 C6          -1.8710    -3.3960    -0.4390 c3         1 32I       0.220800
     25 C1          -3.3430    -3.3890    -0.9200 c3         1 32I      -0.085400
     26 C5          -2.1870    -1.6370     1.3650 c3         1 32I       0.220800
     27 C4          -3.5240    -0.9910     0.9510 c3         1 32I      -0.085400
     28 C3          -4.7120    -1.9710     0.8040 c3         1 32I      -0.071400
     29 C2          -4.3870    -3.3680     0.2210 c3         1 32I      -0.071400
     30 H1           3.4740     1.2980    -0.4090 hn         1 32I       0.351500
     31 H2           7.2470     1.7020    -0.2260 hn         1 32I       0.376400
     32 H3           4.5830     2.5200    -1.9090 hn         1 32I       0.460000
     33 H4           6.1350     3.0080    -1.4310 hn         1 32I       0.460000
     34 H5          -1.3100     0.4620    -2.1650 h4         1 32I       0.032100
     35 H6           0.2930     1.8430     4.1260 h1         1 32I       0.052700
     36 H7          -0.1170     3.2560     3.1300 h1         1 32I       0.052700
     37 H8          -1.3980     2.1420     3.6720 h1         1 32I       0.052700
     38 H9          -3.5790     4.3750    -2.2580 h1         1 32I       0.050700
     39 H10         -4.8270     3.2660    -1.6360 h1         1 32I       0.050700
     40 H11         -4.8640     4.9860    -1.1960 h1         1 32I       0.050700
     41 H12          2.3190    -4.2810    -0.3420 hn         1 32I       0.516000
     42 H13          3.7740    -3.3580    -0.5380 hn         1 32I       0.516000
     43 H14         -1.2550    -3.5860    -1.3280 h1         1 32I       0.051950
     44 H15         -1.7230    -4.2480     0.2380 h1         1 32I       0.051950
     45 H16         -3.5100    -2.5490    -1.6050 hc         1 32I       0.049700
     46 H17         -3.5000    -4.3010    -1.5070 hc         1 32I       0.049700
     47 H18         -2.3750    -2.4390     2.0910 h1         1 32I       0.051950
     48 H19         -1.5970    -0.8810     1.8990 h1         1 32I       0.051950
     49 H20         -3.7940    -0.2350     1.6980 hc         1 32I       0.049700
     50 H21         -3.3850    -0.4490     0.0090 hc         1 32I       0.049700
     51 H22         -5.1770    -2.1140     1.7880 hc         1 32I       0.038700
     52 H23         -5.4730    -1.4920     0.1760 hc         1 32I       0.038700
     53 H24         -5.3220    -3.8060    -0.1490 hc         1 32I       0.038700
     54 H25         -4.0450    -4.0280     1.0280 hc         1 32I       0.038700
     55 C11          3.9960    -0.6480    -0.4900 c          1 32I       0.557600
@<TRIPOS>BOND
     1     1    23 1   
     2     1    24 1   
     3     1    26 1   
     4     2    55 2   
     5     3     4 1   
     6     3    30 1   
     7     3    55 1   
     8     4     5 2   
     9     4     6 1   
    10     5    31 1   
    11     6    32 1   
    12     6    33 1   
    13     7     8 ar  
    14     7    20 ar  
    15     7    55 1   
    16     8     9 ar  
    17     9    10 1   
    18     9    23 ar  
    19    10    11 ar  
    20    10    12 ar  
    21    11    17 ar  
    22    11    34 1   
    23    12    13 1   
    24    12    15 ar  
    25    13    14 1   
    26    14    35 1   
    27    14    36 1   
    28    14    37 1   
    29    15    16 ar  
    30    16    17 ar  
    31    16    18 1   
    32    18    19 1   
    33    19    38 1   
    34    19    39 1   
    35    19    40 1   
    36    20    21 1   
    37    20    22 ar  
    38    21    41 1   
    39    21    42 1   
    40    22    23 ar  
    41    24    25 1   
    42    24    43 1   
    43    24    44 1   
    44    25    29 1   
    45    25    45 1   
    46    25    46 1   
    47    26    27 1   
    48    26    47 1   
    49    26    48 1   
    50    27    28 1   
    51    27    49 1   
    52    27    50 1   
    53    28    29 1   
    54    28    51 1   
    55    28    52 1   
    56    29    53 1   
    57    29    54 1   
@<TRIPOS>SUBSTRUCTURE
     1 32I         1 TEMP              0 ****  ****    0 ROOT
