@<TRIPOS>MOLECULE
32J
   38    41     1     0     0
SMALL
No Charge or Current Charge


@<TRIPOS>ATOM
      1 C4           3.4840     2.0660    -0.0750 cc         1 32J      -0.266900
      2 N2           3.5410     4.6500    -0.1060 n1         1 32J      -0.455000
      3 C7           1.7120    -2.3220     0.2410 cc         1 32J      -0.040000
      4 C6           1.2440    -1.0310     0.0590 cd         1 32J       0.042000
      5 C9          -1.0570    -1.2540     1.0550 ca         1 32J      -0.078000
      6 C13         -0.7610     0.1110    -0.9250 ca         1 32J      -0.078000
      7 C20          3.5400     3.4850    -0.0940 cg         1 32J       0.301700
      8 C8          -0.2000    -0.7040     0.0790 ca         1 32J      -0.029000
      9 C18         -6.3540     1.7240    -0.0180 ca         1 32J      -0.149000
     10 C16         -6.7750    -0.6660     0.0900 ca         1 32J      -0.150000
     11 C19         -4.9700     1.4870    -0.0010 ca         1 32J       0.157100
     12 C1           2.3460    -0.0920     0.0030 cd         1 32J      -0.198800
     13 C2           3.5770    -0.6960     0.0020 cc         1 32J       0.007600
     14 N1           4.7400     0.0340    -0.0710 ns         1 32J      -0.346100
     15 C3           4.8010     1.3960    -0.1280 c          1 32J       0.602200
     16 C5           2.2900     1.3620    -0.0010 cd         1 32J       0.335900
     17 S1           3.4620    -2.4390     0.1460 ss         1 32J       0.246000
     18 C10         -2.4330    -0.9690     1.0450 ca         1 32J      -0.109500
     19 C11         -2.9970    -0.1300     0.0570 cp         1 32J      -0.030000
     20 C12         -2.1370     0.3950    -0.9360 ca         1 32J      -0.109500
     21 C14         -4.4630     0.1610     0.0510 cp         1 32J      -0.139000
     22 C15         -5.3910    -0.9070     0.1050 ca         1 32J      -0.058000
     23 C17         -7.2590     0.6500     0.0250 ca         1 32J      -0.068000
     24 O2           1.1080     2.0010     0.1130 oh         1 32J      -0.495100
     25 O3           5.8780     1.9690    -0.2020 o          1 32J      -0.521000
     26 Cl1          0.7560    -3.7760     0.3340 cl         1 32J      -0.118000
     27 H1          -0.6550    -1.8850     1.8440 ha         1 32J       0.121000
     28 H2          -0.1290     0.5080    -1.7150 ha         1 32J       0.121000
     29 H3          -6.7280     2.7440    -0.0550 ha         1 32J       0.130000
     30 H4          -7.4730    -1.5000     0.1260 ha         1 32J       0.118000
     31 H5           5.6360    -0.4390    -0.0830 hn         1 32J       0.344500
     32 H6          -3.0700    -1.3930     1.8170 ha         1 32J       0.123500
     33 H7          -2.5450     1.0100    -1.7350 ha         1 32J       0.123500
     34 H8          -5.0310    -1.9330     0.1470 ha         1 32J       0.115000
     35 H9          -8.3310     0.8380     0.0140 ha         1 32J       0.116000
     36 H10         -3.2170     2.2140     0.1080 ho         1 32J       0.473000
     37 H11          1.3020     2.9600     0.1220 ho         1 32J       0.498000
     38 O1          -4.1280     2.5580    -0.0020 oh         1 32J      -0.538100
@<TRIPOS>BOND
     1     1     7 1   
     2     1    15 1   
     3     1    16 2   
     4     2     7 3   
     5     3     4 2   
     6     3    17 1   
     7     3    26 1   
     8     4     8 1   
     9     4    12 1   
    10     5     8 ar  
    11     5    18 ar  
    12     5    27 1   
    13     6     8 ar  
    14     6    20 ar  
    15     6    28 1   
    16     9    11 ar  
    17     9    23 ar  
    18     9    29 1   
    19    10    22 ar  
    20    10    23 ar  
    21    10    30 1   
    22    11    21 ar  
    23    11    38 1   
    24    12    13 2   
    25    12    16 1   
    26    13    14 1   
    27    13    17 1   
    28    14    15 1   
    29    14    31 1   
    30    15    25 2   
    31    16    24 1   
    32    18    19 ar  
    33    18    32 1   
    34    19    20 ar  
    35    19    21 1   
    36    20    33 1   
    37    21    22 ar  
    38    22    34 1   
    39    23    35 1   
    40    24    37 1   
    41    36    38 1   
@<TRIPOS>SUBSTRUCTURE
     1 32J         1 TEMP              0 ****  ****    0 ROOT
