@<TRIPOS>MOLECULE
32J
   38    41     1     0     0
SMALL
abcg2


@<TRIPOS>ATOM
      1 C4           3.4710     2.0330     0.1580 cc         1 32J      -0.266900
      2 N2           3.4450     4.5870     0.4060 n1         1 32J      -0.455000
      3 C7           1.6900    -2.2750    -0.1530 cc         1 32J      -0.040000
      4 C6           1.2100    -1.0140    -0.0590 cd         1 32J       0.042000
      5 C9          -0.9890    -0.9970     1.1010 ca         1 32J      -0.078000
      6 C13         -0.8510    -0.1230    -1.1280 ca         1 32J      -0.078000
      7 C20          3.4770     3.4390     0.2940 cg         1 32J       0.301700
      8 C8          -0.2290    -0.6960    -0.0250 ca         1 32J      -0.029000
      9 C18         -6.2910     1.6830    -0.1540 ca         1 32J      -0.149000
     10 C16         -6.7020    -0.6300     0.3670 ca         1 32J      -0.150000
     11 C19         -4.9180     1.4450    -0.1770 ca         1 32J       0.157100
     12 C1           2.2920    -0.0660    -0.0130 cd         1 32J      -0.198800
     13 C2           3.5310    -0.6710    -0.0870 cc         1 32J       0.007600
     14 N1           4.6960     0.0060    -0.0520 ns         1 32J      -0.346100
     15 C3           4.7600     1.3820     0.0660 c          1 32J       0.602200
     16 C5           2.2680     1.3470     0.1250 cd         1 32J       0.335900
     17 S1           3.4250    -2.3780    -0.2020 ss         1 32J       0.246000
     18 C10         -2.3450    -0.7120     1.1300 ca         1 32J      -0.109500
     19 C11         -2.9750    -0.1310     0.0300 cp         1 32J      -0.030000
     20 C12         -2.2090     0.1530    -1.1030 ca         1 32J      -0.109500
     21 C14         -4.4260     0.1540     0.0600 cp         1 32J      -0.139000
     22 C15         -5.3370    -0.8640     0.3420 ca         1 32J      -0.058000
     23 C17         -7.1750     0.6510     0.1110 ca         1 32J      -0.068000
     24 O2           1.0920     1.9210     0.2200 oh         1 32J      -0.495100
     25 O3           5.8290     1.9650     0.0910 o          1 32J      -0.521000
     26 CL1          0.7870    -3.7130    -0.2590 cl         1 32J      -0.118000
     27 H1          -0.5160    -1.4410     1.9680 ha         1 32J       0.121000
     28 H2          -0.2780     0.1000    -2.0190 ha         1 32J       0.121000
     29 H3          -6.6550     2.6870    -0.3380 ha         1 32J       0.130000
     30 H4          -7.3890    -1.4390     0.5770 ha         1 32J       0.118000
     31 H5           5.5780    -0.4870    -0.1160 hn         1 32J       0.344500
     32 H6          -2.9180    -0.9350     2.0210 ha         1 32J       0.123500
     33 H7          -2.6780     0.5610    -1.9900 ha         1 32J       0.123500
     34 H8          -4.9590    -1.8620     0.5290 ha         1 32J       0.115000
     35 H9          -8.2380     0.8520     0.1220 ha         1 32J       0.116000
     36 H10         -3.1890     2.2680    -0.3090 ho         1 32J       0.473000
     37 H11          1.1440     2.8830     0.3150 ho         1 32J       0.498000
     38 O1          -4.1180     2.5050    -0.4140 oh         1 32J      -0.538100
@<TRIPOS>BOND
     1     1     7 1   
     2     1    15 1   
     3     1    16 2   
     4     2     7 3   
     5     3     4 2   
     6     3    17 1   
     7     3    26 1   
     8     4     8 1   
     9     4    12 1   
    10     5     8 ar  
    11     5    18 ar  
    12     5    27 1   
    13     6     8 ar  
    14     6    20 ar  
    15     6    28 1   
    16     9    11 ar  
    17     9    23 ar  
    18     9    29 1   
    19    10    22 ar  
    20    10    23 ar  
    21    10    30 1   
    22    11    21 ar  
    23    11    38 1   
    24    12    13 2   
    25    12    16 1   
    26    13    14 1   
    27    13    17 1   
    28    14    15 1   
    29    14    31 1   
    30    15    25 2   
    31    16    24 1   
    32    18    19 ar  
    33    18    32 1   
    34    19    20 ar  
    35    19    21 1   
    36    20    33 1   
    37    21    22 ar  
    38    22    34 1   
    39    23    35 1   
    40    24    37 1   
    41    36    38 1   
@<TRIPOS>SUBSTRUCTURE
     1 32J         1 TEMP              0 ****  ****    0 ROOT
