@<TRIPOS>MOLECULE
32K
   60    63     1     0     0
SMALL
No Charge or Current Charge


@<TRIPOS>ATOM
      1 C1           7.7990    -2.5480     1.5460 c3         1 32K      -0.014900
      2 C2           7.1720    -1.4810     0.6780 cc         1 32K      -0.284400
      3 C3           5.9520    -0.8930     0.9380 cd         1 32K       0.005600
      4 N4           5.4330     0.0880     0.0900 n          1 32K      -0.302000
      5 C5           6.1570     0.5010    -1.0530 c          1 32K       0.614000
      6 O6           5.7710     1.3560    -1.8310 o          1 32K      -0.558000
      7 N7           7.3500    -0.1130    -1.2610 ns         1 32K      -0.470500
      8 C8           7.9480    -1.0730    -0.5130 c          1 32K       0.589200
      9 O9           9.0330    -1.5330    -0.8300 o          1 32K      -0.545000
     10 C10          4.1030     0.6850     0.4200 c6         1 32K       0.116700
     11 C11          4.1950     2.1650     0.8690 c6         1 32K      -0.090400
     12 C12          2.7910     2.6840     1.2600 c6         1 32K      -0.075400
     13 C13          1.7570     2.4350     0.1320 c6         1 32K       0.161800
     14 N14          1.6830     0.9910    -0.2400 n3         1 32K      -0.705600
     15 C15          3.0140     0.4710    -0.6730 c6         1 32K       0.154800
     16 C16          0.6240     0.6940    -1.2360 c3         1 32K       0.236100
     17 C17         -0.7930     1.0250    -0.7580 ca         1 32K      -0.128300
     18 C18         -1.3740     2.2450    -1.1520 ca         1 32K      -0.128000
     19 C19         -2.6640     2.5900    -0.7310 ca         1 32K      -0.087000
     20 C20         -3.4040     1.7180     0.0880 ca         1 32K      -0.131600
     21 C21         -2.8450     0.4750     0.4700 ca         1 32K       0.092100
     22 C22         -1.5220     0.1230     0.0540 ca         1 32K       0.086100
     23 O23         -0.8850    -1.0730     0.3790 os         1 32K      -0.346100
     24 C24         -1.4040    -2.0700     1.2740 c3         1 32K       0.151900
     25 O25         -3.6170    -0.3850     1.2210 os         1 32K      -0.222200
     26 C26         -4.6830    -1.0810     0.6900 ca         1 32K       0.197100
     27 C27         -5.5970    -1.6810     1.5730 ca         1 32K      -0.124000
     28 C28         -6.6910    -2.4080     1.0740 ca         1 32K      -0.082000
     29 C29         -6.8680    -2.5390    -0.3140 ca         1 32K      -0.157000
     30 C30         -5.9510    -1.9460    -1.1970 ca         1 32K       0.162000
     31 C31         -4.8580    -1.2200    -0.7020 ca         1 32K      -0.170000
     32 Cl          -6.1700    -2.1190    -2.9330 cl         1 32K      -0.238000
     33 C33         -4.7830     2.1280     0.5340 c          1 32K       0.712600
     34 O34         -5.5780     2.4830    -0.3240 o          1 32K      -0.699000
     35 O35         -5.0170     2.1800     1.7340 o          1 32K      -0.699000
     36 H1           7.9590    -3.4730     0.9800 hc         1 32K       0.043367
     37 H2           8.7690    -2.2170     1.9370 hc         1 32K       0.043367
     38 H3           7.1610    -2.7900     2.4040 hc         1 32K       0.043367
     39 H4           5.3290    -1.1410     1.7940 h4         1 32K       0.210000
     40 H5           7.8580     0.1870    -2.0770 hn         1 32K       0.337500
     41 H6           3.7160     0.1440     1.2950 h1         1 32K       0.073700
     42 H7           4.8830     2.2600     1.7200 hc         1 32K       0.052700
     43 H8           4.6010     2.7860     0.0600 hc         1 32K       0.052700
     44 H9           2.4530     2.1850     2.1790 hc         1 32K       0.051700
     45 H10          2.8390     3.7580     1.4880 hc         1 32K       0.051700
     46 H11          0.7800     2.7950     0.4830 h1         1 32K       0.044200
     47 H12          2.0290     3.0410    -0.7460 h1         1 32K       0.044200
     48 H14          3.3180     0.9680    -1.6050 h1         1 32K       0.044200
     49 H15          2.9460    -0.6050    -0.8890 h1         1 32K       0.044200
     50 H16          0.8240     1.2520    -2.1620 h1         1 32K       0.028200
     51 H17          0.6580    -0.3690    -1.5080 h1         1 32K       0.028200
     52 H18         -0.8170     2.9350    -1.7810 ha         1 32K       0.093000
     53 H19         -3.0920     3.5430    -1.0360 ha         1 32K       0.133000
     54 H20         -1.6230    -1.6390     2.2590 h1         1 32K       0.024700
     55 H21         -2.3130    -2.5290     0.8670 h1         1 32K       0.024700
     56 H22         -0.6640    -2.8690     1.4140 h1         1 32K       0.024700
     57 H23         -5.4560    -1.5770     2.6460 ha         1 32K       0.128000
     58 H24         -7.3990    -2.8690     1.7600 ha         1 32K       0.101000
     59 H25         -7.7120    -3.1010    -0.7050 ha         1 32K       0.113000
     60 H26         -4.1550    -0.7770    -1.4010 ha         1 32K       0.141000
@<TRIPOS>BOND
     1     1     2 1   
     2     1    36 1   
     3     1    37 1   
     4     1    38 1   
     5     2     3 2   
     6     2     8 1   
     7     3     4 1   
     8     3    39 1   
     9     4     5 1   
    10     4    10 1   
    11     5     6 2   
    12     5     7 1   
    13     7     8 1   
    14     7    40 1   
    15     8     9 2   
    16    10    11 1   
    17    10    15 1   
    18    10    41 1   
    19    11    12 1   
    20    11    42 1   
    21    11    43 1   
    22    12    13 1   
    23    12    44 1   
    24    12    45 1   
    25    13    14 1   
    26    13    46 1   
    27    13    47 1   
    28    14    15 1   
    29    14    16 1   
    30    15    48 1   
    31    15    49 1   
    32    16    17 1   
    33    16    50 1   
    34    16    51 1   
    35    17    18 ar  
    36    17    22 ar  
    37    18    19 ar  
    38    18    52 1   
    39    19    20 ar  
    40    19    53 1   
    41    20    21 ar  
    42    20    33 1   
    43    21    22 ar  
    44    21    25 1   
    45    22    23 1   
    46    23    24 1   
    47    24    54 1   
    48    24    55 1   
    49    24    56 1   
    50    25    26 1   
    51    26    27 ar  
    52    26    31 ar  
    53    27    28 ar  
    54    27    57 1   
    55    28    29 ar  
    56    28    58 1   
    57    29    30 ar  
    58    29    59 1   
    59    30    31 ar  
    60    30    32 1   
    61    31    60 1   
    62    33    34 1   
    63    33    35 1   
@<TRIPOS>SUBSTRUCTURE
     1 32K         1 TEMP              0 ****  ****    0 ROOT
