@<TRIPOS>MOLECULE
32K
   60    63     1     0     0
SMALL
bcc


@<TRIPOS>ATOM
      1 C1           6.9020    -2.8780     1.7700 c3         1 32K      -0.014900
      2 C2           6.6180    -1.7020     0.8950 cc         1 32K      -0.284400
      3 C3           5.4860    -0.9810     0.9790 cd         1 32K       0.055600
      4 N4           5.1860     0.1000     0.1920 n          1 32K      -0.369000
      5 C5           6.0700     0.5240    -0.7720 c          1 32K       0.823500
      6 O6           5.8690     1.4690    -1.5080 o          1 32K      -0.633500
      7 N7           7.2260    -0.2110    -0.8500 ns         1 32K      -0.604500
      8 C8           7.5960    -1.3090    -0.0960 c          1 32K       0.731700
      9 O9           8.6650    -1.8630    -0.2870 o          1 32K      -0.620500
     10 C10          3.9090     0.7980     0.4090 c6         1 32K       0.116700
     11 C11          4.0600     2.2460     0.8580 c6         1 32K      -0.090400
     12 C12          2.6700     2.7960     1.1570 c6         1 32K      -0.075400
     13 C13          1.7360     2.6000    -0.0280 c6         1 32K       0.161800
     14 N14          1.6600     1.1990    -0.4030 n3         1 32K      -0.705600
     15 C15          2.9610     0.6800    -0.7820 c6         1 32K       0.154800
     16 C16          0.6840     0.9610    -1.4510 c3         1 32K       0.236100
     17 C17         -0.7260     1.1770    -0.9760 ca         1 32K      -0.128300
     18 C18         -1.4700     2.2690    -1.4050 ca         1 32K      -0.146000
     19 C19         -2.7620     2.4800    -0.9510 ca         1 32K      -0.105000
     20 C20         -3.3500     1.6330    -0.0180 ca         1 32K      -0.131600
     21 C21         -2.6070     0.5300     0.4020 ca         1 32K       0.092100
     22 C22         -1.3170     0.2920    -0.0750 ca         1 32K       0.086100
     23 O23         -0.6360    -0.8020     0.3590 os         1 32K      -0.322900
     24 C24         -0.8780    -1.9830    -0.3920 c3         1 32K       0.128700
     25 O25         -3.0890    -0.3690     1.3150 os         1 32K      -0.222200
     26 C26         -4.2160    -1.0700     1.0480 ca         1 32K       0.197100
     27 C27         -4.8380    -1.6840     2.1300 ca         1 32K      -0.142000
     28 C28         -5.9650    -2.4590     1.9200 ca         1 32K      -0.100000
     29 C29         -6.4920    -2.6340     0.6460 ca         1 32K      -0.175000
     30 C30         -5.8490    -2.0170    -0.4120 ca         1 32K       0.070400
     31 C31         -4.7150    -1.2390    -0.2390 ca         1 32K      -0.188000
     32 CL          -6.4720    -2.2210    -2.0190 cl         1 32K      -0.146400
     33 C33         -4.7370     1.9690     0.5250 c          1 32K       0.923200
     34 O34         -5.5230     2.4910    -0.2870 o          1 32K      -0.804300
     35 O35         -4.9390     1.7240     1.7260 o          1 32K      -0.804300
     36 H1           7.0040    -3.7950     1.1870 hc         1 32K       0.043367
     37 H2           7.8300    -2.7460     2.3280 hc         1 32K       0.043367
     38 H3           6.0980    -3.0280     2.4900 hc         1 32K       0.043367
     39 H4           4.7260    -1.2350     1.7050 h4         1 32K       0.160000
     40 H5           7.8850     0.1010    -1.5530 hn         1 32K       0.337500
     41 H6           3.4330     0.2530     1.2270 h1         1 32K       0.073700
     42 H7           4.6990     2.3000     1.7410 hc         1 32K       0.052700
     43 H8           4.5270     2.8430     0.0740 hc         1 32K       0.052700
     44 H9           2.2510     2.2880     2.0300 hc         1 32K       0.051700
     45 H10          2.7300     3.8570     1.4020 hc         1 32K       0.051700
     46 H11          0.7370     2.9500     0.2370 h1         1 32K       0.044200
     47 H12          2.0790     3.2240    -0.8740 h1         1 32K       0.044200
     48 H14          3.3730     1.2020    -1.6570 h1         1 32K       0.044200
     49 H15          2.8520    -0.3750    -1.0470 h1         1 32K       0.044200
     50 H16          0.8650     1.6030    -2.3300 h1         1 32K       0.028200
     51 H17          0.8080    -0.0680    -1.8000 h1         1 32K       0.028200
     52 H18         -1.0280     2.9640    -2.1100 ha         1 32K       0.111000
     53 H19         -3.3220     3.3340    -1.3090 ha         1 32K       0.151000
     54 H20         -1.9220    -2.3040    -0.3360 h1         1 32K       0.024700
     55 H21         -0.6150    -1.8530    -1.4460 h1         1 32K       0.024700
     56 H22         -0.2530    -2.7670     0.0300 h1         1 32K       0.024700
     57 H23         -4.4410    -1.5470     3.1270 ha         1 32K       0.146000
     58 H24         -6.4490    -2.9330     2.7640 ha         1 32K       0.119000
     59 H25         -7.3770    -3.2350     0.4880 ha         1 32K       0.131000
     60 H26         -4.2370    -0.7780    -1.0930 ha         1 32K       0.159000
@<TRIPOS>BOND
     1     1     2 1   
     2     1    36 1   
     3     1    37 1   
     4     1    38 1   
     5     2     3 2   
     6     2     8 1   
     7     3     4 1   
     8     3    39 1   
     9     4     5 1   
    10     4    10 1   
    11     5     6 2   
    12     5     7 1   
    13     7     8 1   
    14     7    40 1   
    15     8     9 2   
    16    10    11 1   
    17    10    15 1   
    18    10    41 1   
    19    11    12 1   
    20    11    42 1   
    21    11    43 1   
    22    12    13 1   
    23    12    44 1   
    24    12    45 1   
    25    13    14 1   
    26    13    46 1   
    27    13    47 1   
    28    14    15 1   
    29    14    16 1   
    30    15    48 1   
    31    15    49 1   
    32    16    17 1   
    33    16    50 1   
    34    16    51 1   
    35    17    18 ar  
    36    17    22 ar  
    37    18    19 ar  
    38    18    52 1   
    39    19    20 ar  
    40    19    53 1   
    41    20    21 ar  
    42    20    33 1   
    43    21    22 ar  
    44    21    25 1   
    45    22    23 1   
    46    23    24 1   
    47    24    54 1   
    48    24    55 1   
    49    24    56 1   
    50    25    26 1   
    51    26    27 ar  
    52    26    31 ar  
    53    27    28 ar  
    54    27    57 1   
    55    28    29 ar  
    56    28    58 1   
    57    29    30 ar  
    58    29    59 1   
    59    30    31 ar  
    60    30    32 1   
    61    31    60 1   
    62    33    34 1   
    63    33    35 1   
@<TRIPOS>SUBSTRUCTURE
     1 32K         1 TEMP              0 ****  ****    0 ROOT
