@<TRIPOS>MOLECULE
32L
   35    34     1     0     0
SMALL
bcc


@<TRIPOS>ATOM
      1 N            1.4330     0.7820     1.5420 n8         1 32L      -0.921800
      2 CA           1.4860     0.3880     0.1370 c3         1 32L       0.133500
      3 CB           2.7040    -0.4910    -0.1260 c3         1 32L      -0.080400
      4 CG           4.0700     0.1850     0.0360 c3         1 32L      -0.063700
      5 CD1          5.1760    -0.8350    -0.2220 c3         1 32L      -0.089100
      6 CD2          4.2330     1.3930    -0.8800 c3         1 32L      -0.089100
      7 CH           0.1860    -0.3750    -0.1700 c3         1 32L       0.160100
      8 OH          -0.0270    -1.3780     0.7940 oh         1 32L      -0.589800
      9 CM          -1.0060     0.5780    -0.2290 c3         1 32L      -0.170400
     10 C           -2.2760    -0.1260    -0.6260 c          1 32L       0.654100
     11 O           -2.3350    -1.0180    -1.4380 o          1 32L      -0.537000
     12 OXT         -3.3390     0.3750    -0.0140 os         1 32L      -0.430900
     13 C9          -4.6330    -0.1350    -0.3750 c3         1 32L       0.145400
     14 C10         -5.6620     0.5940     0.4530 c3         1 32L      -0.097100
     15 H1           2.3560     0.9790     1.9060 hn         1 32L       0.352300
     16 H2           0.8990     1.6330     1.6610 hn         1 32L       0.352300
     17 H4           1.5240     1.2500    -0.5420 h1         1 32L       0.030700
     18 H5           2.6610    -1.3650     0.5320 hc         1 32L       0.057700
     19 H6           2.6350    -0.8720    -1.1510 hc         1 32L       0.057700
     20 H7           4.1860     0.5260     1.0720 hc         1 32L       0.039700
     21 H8           6.1630    -0.3900    -0.0880 hc         1 32L       0.034200
     22 H9           5.1010    -1.6870     0.4560 hc         1 32L       0.034200
     23 H10          5.1230    -1.2180    -1.2440 hc         1 32L       0.034200
     24 H11          3.5300     2.1920    -0.6430 hc         1 32L       0.034200
     25 H12          5.2370     1.8120    -0.7970 hc         1 32L       0.034200
     26 H13          4.0750     1.1120    -1.9250 hc         1 32L       0.034200
     27 H14          0.2860    -0.8610    -1.1450 h1         1 32L       0.083700
     28 H15          0.3020    -0.9850     1.6200 ho         1 32L       0.427000
     29 H16         -1.1460     1.1010     0.7190 hc         1 32L       0.070200
     30 H17         -0.8210     1.3460    -0.9890 hc         1 32L       0.070200
     31 H18         -4.8040     0.0270    -1.4410 h1         1 32L       0.048700
     32 H19         -4.6730    -1.2100    -0.1880 h1         1 32L       0.048700
     33 H20         -5.5230     0.4130     1.5190 hc         1 32L       0.045367
     34 H21         -5.6330     1.6690     0.2760 hc         1 32L       0.045367
     35 H22         -6.6560     0.2390     0.1820 hc         1 32L       0.045367
@<TRIPOS>BOND
     1     1     2 1   
     2     1    15 1   
     3     1    16 1   
     4     2     3 1   
     5     2     7 1   
     6     2    17 1   
     7     3     4 1   
     8     3    18 1   
     9     3    19 1   
    10     4     5 1   
    11     4     6 1   
    12     4    20 1   
    13     5    21 1   
    14     5    22 1   
    15     5    23 1   
    16     6    24 1   
    17     6    25 1   
    18     6    26 1   
    19     7     8 1   
    20     7     9 1   
    21     7    27 1   
    22     8    28 1   
    23     9    10 1   
    24     9    29 1   
    25     9    30 1   
    26    10    11 2   
    27    10    12 1   
    28    12    13 1   
    29    13    14 1   
    30    13    31 1   
    31    13    32 1   
    32    14    33 1   
    33    14    34 1   
    34    14    35 1   
@<TRIPOS>SUBSTRUCTURE
     1 32L         1 TEMP              0 ****  ****    0 ROOT
