@<TRIPOS>MOLECULE
32M
   69    68     1     0     0
SMALL
bcc


@<TRIPOS>ATOM
      1 CAA         11.9980    -3.7010    -0.3020 c3         1 32M      -0.088100
      2 CAC         11.0370    -2.9050     0.5700 c3         1 32M      -0.075400
      3 CAE         10.0350    -2.0900    -0.2400 c3         1 32M      -0.075400
      4 CAF          9.0690    -1.2910     0.6250 c3         1 32M      -0.074400
      5 CAG          8.0530    -0.4950    -0.1840 c3         1 32M      -0.073400
      6 CAH          7.0830     0.2950     0.6860 c3         1 32M      -0.074400
      7 CAI          6.0440     1.0610    -0.1230 c3         1 32M      -0.079400
      8 CAK          5.0940     1.8380     0.7660 c3         1 32M       0.140400
      9 OAW          4.1140     2.4650    -0.0270 os         1 32M      -0.402600
     10 CAM          3.1680     3.1790     0.7260 c3         1 32M       0.141400
     11 CAO          2.0860     3.7010    -0.1830 c3         1 32M       0.138400
     12 OAY          1.3880     2.6210    -0.7500 os         1 32M      -0.388600
     13 CAQ          0.2890     3.0240    -1.5260 c3         1 32M       0.138400
     14 CAS         -0.3750     1.8110    -2.1250 c3         1 32M       0.139400
     15 OBA         -0.8990     1.0040    -1.1020 os         1 32M      -0.389600
     16 CAU         -1.4820    -0.1790    -1.5840 c3         1 32M       0.139400
     17 CAT         -1.9780    -1.0100    -0.4290 c3         1 32M       0.138400
     18 OAZ         -3.0440    -0.3560     0.2090 os         1 32M      -0.389600
     19 CAR         -3.5480    -1.0830     1.3010 c3         1 32M       0.139400
     20 CAP         -4.7010    -0.3400     1.9250 c3         1 32M       0.138400
     21 OAX         -5.7720    -0.2750     1.0190 os         1 32M      -0.389600
     22 CAN         -6.9120     0.3350     1.5690 c3         1 32M       0.139400
     23 CAL         -8.0080     0.3880     0.5360 c3         1 32M       0.139400
     24 OAV         -8.4120    -0.9140     0.2010 os         1 32M      -0.387600
     25 CAJ         -9.4320    -0.9330    -0.7660 c3         1 32M       0.137400
     26 CAD         -9.8130    -2.3550    -1.0860 c3         1 32M       0.140400
     27 OAB        -10.3940    -2.9560     0.0490 oh         1 32M      -0.586800
     28 H1          11.4600    -4.3910    -0.9560 hc         1 32M       0.031367
     29 H2          12.5910    -3.0410    -0.9380 hc         1 32M       0.031367
     30 H3          12.6920    -4.2890     0.2990 hc         1 32M       0.031367
     31 H4          10.4950    -3.5850     1.2340 hc         1 32M       0.036200
     32 H5          11.6050    -2.2340     1.2220 hc         1 32M       0.036200
     33 H6          10.5760    -1.4090    -0.9060 hc         1 32M       0.037700
     34 H7           9.4670    -2.7640    -0.8920 hc         1 32M       0.037700
     35 H8           8.5380    -1.9740     1.2990 hc         1 32M       0.036700
     36 H9           9.6360    -0.6100     1.2690 hc         1 32M       0.036700
     37 H10          8.5790     0.1910    -0.8560 hc         1 32M       0.039200
     38 H11          7.4870    -1.1780    -0.8280 hc         1 32M       0.039200
     39 H12          6.5740    -0.3910     1.3720 hc         1 32M       0.036700
     40 H13          7.6470     0.9920     1.3160 hc         1 32M       0.036700
     41 H14          6.5450     1.7480    -0.8130 hc         1 32M       0.052700
     42 H15          5.4700     0.3590    -0.7360 hc         1 32M       0.052700
     43 H16          4.6200     1.1570     1.4890 h1         1 32M       0.017700
     44 H17          5.6520     2.5810     1.3550 h1         1 32M       0.017700
     45 H18          2.7220     2.5420     1.5040 h1         1 32M       0.028200
     46 H19          3.6290     4.0330     1.2420 h1         1 32M       0.028200
     47 H20          1.4160     4.3380     0.4120 h1         1 32M       0.026700
     48 H21          2.5230     4.3420    -0.9630 h1         1 32M       0.026700
     49 H22         -0.4330     3.5910    -0.9210 h1         1 32M       0.027700
     50 H23          0.6010     3.6830    -2.3480 h1         1 32M       0.027700
     51 H24         -1.1660     2.1540    -2.8070 h1         1 32M       0.027700
     52 H25          0.3500     1.2520    -2.7340 h1         1 32M       0.027700
     53 H26         -2.3090     0.0390    -2.2750 h1         1 32M       0.028200
     54 H27         -0.7510    -0.7790    -2.1440 h1         1 32M       0.028200
     55 H28         -2.2920    -1.9880    -0.8220 h1         1 32M       0.028200
     56 H29         -1.1530    -1.1990     0.2730 h1         1 32M       0.028200
     57 H30         -3.8750    -2.0860     0.9910 h1         1 32M       0.028200
     58 H31         -2.7780    -1.2240     2.0720 h1         1 32M       0.028200
     59 H32         -4.9900    -0.8720     2.8420 h1         1 32M       0.027700
     60 H33         -4.3800     0.6660     2.2300 h1         1 32M       0.027700
     61 H34         -7.2580    -0.2110     2.4590 h1         1 32M       0.028200
     62 H35         -6.6980     1.3630     1.8910 h1         1 32M       0.028200
     63 H36         -8.8440     0.9680     0.9530 h1         1 32M       0.027200
     64 H37         -7.6570     0.9350    -0.3520 h1         1 32M       0.027200
     65 H38        -10.3150    -0.3780    -0.4180 h1         1 32M       0.025700
     66 H39         -9.1020    -0.4500    -1.6970 h1         1 32M       0.025700
     67 H40        -10.5090    -2.3220    -1.9340 h1         1 32M       0.024700
     68 H41         -8.9240    -2.9020    -1.4280 h1         1 32M       0.024700
     69 H42        -10.6520    -3.8510    -0.1870 ho         1 32M       0.400000
@<TRIPOS>BOND
     1     1     2 1   
     2     1    28 1   
     3     1    29 1   
     4     1    30 1   
     5     2     3 1   
     6     2    31 1   
     7     2    32 1   
     8     3     4 1   
     9     3    33 1   
    10     3    34 1   
    11     4     5 1   
    12     4    35 1   
    13     4    36 1   
    14     5     6 1   
    15     5    37 1   
    16     5    38 1   
    17     6     7 1   
    18     6    39 1   
    19     6    40 1   
    20     7     8 1   
    21     7    41 1   
    22     7    42 1   
    23     8     9 1   
    24     8    43 1   
    25     8    44 1   
    26     9    10 1   
    27    10    11 1   
    28    10    45 1   
    29    10    46 1   
    30    11    12 1   
    31    11    47 1   
    32    11    48 1   
    33    12    13 1   
    34    13    14 1   
    35    13    49 1   
    36    13    50 1   
    37    14    15 1   
    38    14    51 1   
    39    14    52 1   
    40    15    16 1   
    41    16    17 1   
    42    16    53 1   
    43    16    54 1   
    44    17    18 1   
    45    17    55 1   
    46    17    56 1   
    47    18    19 1   
    48    19    20 1   
    49    19    57 1   
    50    19    58 1   
    51    20    21 1   
    52    20    59 1   
    53    20    60 1   
    54    21    22 1   
    55    22    23 1   
    56    22    61 1   
    57    22    62 1   
    58    23    24 1   
    59    23    63 1   
    60    23    64 1   
    61    24    25 1   
    62    25    26 1   
    63    25    65 1   
    64    25    66 1   
    65    26    27 1   
    66    26    67 1   
    67    26    68 1   
    68    27    69 1   
@<TRIPOS>SUBSTRUCTURE
     1 32M         1 TEMP              0 ****  ****    0 ROOT
