@<TRIPOS>MOLECULE
32M
   69    68     1     0     0
SMALL
No Charge or Current Charge


@<TRIPOS>ATOM
      1 CAA         13.1930    -2.9220    -0.9850 c3         1 32M      -0.088100
      2 CAC         12.1930    -2.3430     0.0350 c3         1 32M      -0.075400
      3 CAE         10.9610    -1.6900    -0.6300 c3         1 32M      -0.075400
      4 CAF          9.9600    -1.1100     0.3930 c3         1 32M      -0.074400
      5 CAG          8.7270    -0.4580    -0.2720 c3         1 32M      -0.073400
      6 CAH          7.7260     0.1230     0.7500 c3         1 32M      -0.074400
      7 CAI          6.4930     0.7750     0.0860 c3         1 32M      -0.079400
      8 CAK          5.4960     1.3540     1.1090 c3         1 32M       0.163600
      9 OAW          4.4030     1.9270     0.3770 os         1 32M      -0.449000
     10 CAM          3.3750     2.5130     1.2020 c3         1 32M       0.164600
     11 CAO          2.2580     3.0810     0.2940 c3         1 32M       0.161600
     12 OAY          1.5160     1.9870    -0.2800 os         1 32M      -0.435000
     13 CAQ          0.4470     2.3870    -1.1610 c3         1 32M       0.161600
     14 CAS         -0.2700     1.1240    -1.6940 c3         1 32M       0.162600
     15 OBA         -1.0380     0.5330    -0.6270 os         1 32M      -0.436000
     16 CAU         -1.7490    -0.6660    -0.9960 c3         1 32M       0.162600
     17 CAT         -2.5370    -1.1850     0.2310 c3         1 32M       0.161600
     18 OAZ         -3.6510    -0.3050     0.4810 os         1 32M      -0.436000
     19 CAR         -4.4630    -0.6770     1.6120 c3         1 32M       0.162600
     20 CAP         -5.6220     0.3380     1.7590 c3         1 32M       0.161600
     21 OAX         -6.5710     0.1250     0.6950 os         1 32M      -0.436000
     22 CAN         -7.6990     1.0220     0.7130 c3         1 32M       0.162600
     23 CAL         -8.6380     0.6800    -0.4690 c3         1 32M       0.162600
     24 OAV         -9.3120    -0.5630    -0.1920 os         1 32M      -0.434000
     25 CAJ        -10.2100    -0.9990    -1.2320 c3         1 32M       0.160600
     26 CAD        -10.8760    -2.3370    -0.8090 c3         1 32M       0.163600
     27 OAB        -11.7770    -2.1560     0.3010 oh         1 32M      -0.709000
     28 H1          12.7170    -3.6960    -1.5990 hc         1 32M       0.031367
     29 H2          13.5700    -2.1350    -1.6490 hc         1 32M       0.031367
     30 H3          14.0480    -3.3730    -0.4670 hc         1 32M       0.031367
     31 H4          11.8630    -3.1460     0.7050 hc         1 32M       0.036200
     32 H5          12.7080    -1.5990     0.6560 hc         1 32M       0.036200
     33 H6          11.2960    -0.8900    -1.3010 hc         1 32M       0.037700
     34 H7          10.4500    -2.4370    -1.2510 hc         1 32M       0.037700
     35 H8           9.6250    -1.9110     1.0640 hc         1 32M       0.036700
     36 H9          10.4710    -0.3630     1.0140 hc         1 32M       0.036700
     37 H10          9.0620     0.3430    -0.9430 hc         1 32M       0.039200
     38 H11          8.2160    -1.2040    -0.8930 hc         1 32M       0.039200
     39 H12          7.3910    -0.6770     1.4220 hc         1 32M       0.036700
     40 H13          8.2370     0.8700     1.3710 hc         1 32M       0.036700
     41 H14          6.8250     1.5790    -0.5830 hc         1 32M       0.052700
     42 H15          5.9780     0.0300    -0.5320 hc         1 32M       0.052700
     43 H16          5.1420     0.5530     1.7710 h1         1 32M       0.017700
     44 H17          5.9960     2.1170     1.7200 h1         1 32M       0.017700
     45 H18          2.9480     1.7700     1.8880 h1         1 32M       0.028200
     46 H19          3.7930     3.3320     1.8020 h1         1 32M       0.028200
     47 H20          1.5950     3.7110     0.9000 h1         1 32M       0.026700
     48 H21          2.7040     3.7090    -0.4890 h1         1 32M       0.026700
     49 H22         -0.2770     3.0270    -0.6380 h1         1 32M       0.027700
     50 H23          0.8490     2.9520    -2.0120 h1         1 32M       0.027700
     51 H24         -0.9300     1.4140    -2.5210 h1         1 32M       0.027700
     52 H25          0.4740     0.4160    -2.0830 h1         1 32M       0.027700
     53 H26         -2.4440    -0.4740    -1.8240 h1         1 32M       0.028200
     54 H27         -1.0420    -1.4420    -1.3170 h1         1 32M       0.028200
     55 H28         -2.8950    -2.2000     0.0170 h1         1 32M       0.028200
     56 H29         -1.8700    -1.2340     1.1010 h1         1 32M       0.028200
     57 H30         -4.8730    -1.6880     1.4890 h1         1 32M       0.028200
     58 H31         -3.8620    -0.6630     2.5310 h1         1 32M       0.028200
     59 H32         -6.1040     0.1860     2.7330 h1         1 32M       0.027700
     60 H33         -5.2210     1.3590     1.7320 h1         1 32M       0.027700
     61 H34         -8.2530     0.9410     1.6580 h1         1 32M       0.028200
     62 H35         -7.3590     2.0610     0.6060 h1         1 32M       0.028200
     63 H36         -9.3690     1.4900    -0.5860 h1         1 32M       0.027200
     64 H37         -8.0520     0.6140    -1.3950 h1         1 32M       0.027200
     65 H38        -10.9880    -0.2470    -1.4210 h1         1 32M       0.025700
     66 H39         -9.6590    -1.1590    -2.1680 h1         1 32M       0.025700
     67 H40        -11.4230    -2.7400    -1.6720 h1         1 32M       0.024700
     68 H41        -10.0900    -3.0600    -0.5520 h1         1 32M       0.024700
     69 H42        -12.1090    -3.0510     0.5480 ho         1 32M       0.499000
@<TRIPOS>BOND
     1     1     2 1   
     2     1    28 1   
     3     1    29 1   
     4     1    30 1   
     5     2     3 1   
     6     2    31 1   
     7     2    32 1   
     8     3     4 1   
     9     3    33 1   
    10     3    34 1   
    11     4     5 1   
    12     4    35 1   
    13     4    36 1   
    14     5     6 1   
    15     5    37 1   
    16     5    38 1   
    17     6     7 1   
    18     6    39 1   
    19     6    40 1   
    20     7     8 1   
    21     7    41 1   
    22     7    42 1   
    23     8     9 1   
    24     8    43 1   
    25     8    44 1   
    26     9    10 1   
    27    10    11 1   
    28    10    45 1   
    29    10    46 1   
    30    11    12 1   
    31    11    47 1   
    32    11    48 1   
    33    12    13 1   
    34    13    14 1   
    35    13    49 1   
    36    13    50 1   
    37    14    15 1   
    38    14    51 1   
    39    14    52 1   
    40    15    16 1   
    41    16    17 1   
    42    16    53 1   
    43    16    54 1   
    44    17    18 1   
    45    17    55 1   
    46    17    56 1   
    47    18    19 1   
    48    19    20 1   
    49    19    57 1   
    50    19    58 1   
    51    20    21 1   
    52    20    59 1   
    53    20    60 1   
    54    21    22 1   
    55    22    23 1   
    56    22    61 1   
    57    22    62 1   
    58    23    24 1   
    59    23    63 1   
    60    23    64 1   
    61    24    25 1   
    62    25    26 1   
    63    25    65 1   
    64    25    66 1   
    65    26    27 1   
    66    26    67 1   
    67    26    68 1   
    68    27    69 1   
@<TRIPOS>SUBSTRUCTURE
     1 32M         1 TEMP              0 ****  ****    0 ROOT
