@<TRIPOS>MOLECULE
32O
   20    20     1     0     0
SMALL
bcc


@<TRIPOS>ATOM
      1 O5          -9.5630   -19.3490   -45.1260 oh         1 32O      -0.580800
      2 C5         -10.2610   -18.3650   -45.8490 c3         1 32O       0.130400
      3 C4         -11.3220   -17.7550   -44.9620 c5         1 32O       0.106100
      4 O4         -12.3170   -18.7100   -44.6110 os         1 32O      -0.407600
      5 C3         -12.0720   -16.6010   -45.6510 c5         1 32O       0.126100
      6 O3         -11.5290   -15.3330   -45.4230 oh         1 32O      -0.559800
      7 C2         -13.4700   -16.7410   -45.0640 c5         1 32O       0.129100
      8 O2         -13.4650   -16.1850   -43.7750 oh         1 32O      -0.562800
      9 C1         -13.5870   -18.2630   -45.0120 c5         1 32O       0.288900
     10 O1         -13.9310   -18.7120   -46.2860 oh         1 32O      -0.618800
     11 HO5         -8.9050   -19.7410   -45.7070 ho         1 32O       0.402000
     12 H51         -9.5950   -17.5560   -46.1820 h1         1 32O       0.019700
     13 H52        -10.7400   -18.7750   -46.7480 h1         1 32O       0.019700
     14 H4         -10.8510   -17.3840   -44.0430 h1         1 32O       0.091700
     15 H3         -12.1430   -16.8100   -46.7270 h1         1 32O       0.051700
     16 HO3        -10.7540   -15.2310   -45.9840 ho         1 32O       0.404000
     17 H2         -14.2440   -16.2950   -45.7000 h1         1 32O       0.069700
     18 HO2        -14.3420   -16.2910   -43.3940 ho         1 32O       0.403000
     19 H1         -14.3090   -18.6110   -44.2630 h2         1 32O       0.065700
     20 HO1        -14.0740   -19.6640   -46.2580 ho         1 32O       0.422000
@<TRIPOS>BOND
     1     1     2 1   
     2     1    11 1   
     3     2     3 1   
     4     2    12 1   
     5     2    13 1   
     6     3     4 1   
     7     3     5 1   
     8     3    14 1   
     9     4     9 1   
    10     5     6 1   
    11     5     7 1   
    12     5    15 1   
    13     6    16 1   
    14     7     8 1   
    15     7     9 1   
    16     7    17 1   
    17     8    18 1   
    18     9    10 1   
    19     9    19 1   
    20    10    20 1   
@<TRIPOS>SUBSTRUCTURE
     1 32O         1 TEMP              0 ****  ****    0 ROOT
