@<TRIPOS>MOLECULE
32O
   20    20     1     0     0
SMALL
No Charge or Current Charge


@<TRIPOS>ATOM
      1 O5          -9.4340   -19.3250   -45.0730 oh         1 32O      -0.703000
      2 C5         -10.2280   -18.4020   -45.8400 c3         1 32O       0.153600
      3 C4         -11.3650   -17.7780   -44.9810 c5         1 32O       0.129300
      4 O4         -12.3930   -18.7710   -44.6780 os         1 32O      -0.454000
      5 C3         -12.1150   -16.5900   -45.6750 c5         1 32O       0.149300
      6 O3         -11.4670   -15.3090   -45.5330 oh         1 32O      -0.682000
      7 C2         -13.5050   -16.6830   -44.9550 c5         1 32O       0.152300
      8 O2         -13.4750   -16.1970   -43.5890 oh         1 32O      -0.685000
      9 C1         -13.6800   -18.2450   -45.0440 c5         1 32O       0.335300
     10 O1         -13.9680   -18.7020   -46.3580 oh         1 32O      -0.741000
     11 HO5         -8.7810   -19.7270   -45.6920 ho         1 32O       0.501000
     12 H51         -9.5900   -17.5920   -46.2170 h1         1 32O       0.019700
     13 H52        -10.6730   -18.9050   -46.7090 h1         1 32O       0.019700
     14 H4         -10.9330   -17.4350   -44.0300 h1         1 32O       0.091700
     15 H3         -12.2440   -16.8080   -46.7450 h1         1 32O       0.051700
     16 HO3        -10.7140   -15.2860   -46.1670 ho         1 32O       0.503000
     17 H2         -14.2820   -16.1650   -45.5350 h1         1 32O       0.069700
     18 HO2        -14.4050   -16.1860   -43.2630 ho         1 32O       0.502000
     19 H1         -14.4500   -18.6010   -44.3450 h2         1 32O       0.065700
     20 HO1        -13.7710   -19.6650   -46.3360 ho         1 32O       0.521000
@<TRIPOS>BOND
     1     1     2 1   
     2     1    11 1   
     3     2     3 1   
     4     2    12 1   
     5     2    13 1   
     6     3     4 1   
     7     3     5 1   
     8     3    14 1   
     9     4     9 1   
    10     5     6 1   
    11     5     7 1   
    12     5    15 1   
    13     6    16 1   
    14     7     8 1   
    15     7     9 1   
    16     7    17 1   
    17     8    18 1   
    18     9    10 1   
    19     9    19 1   
    20    10    20 1   
@<TRIPOS>SUBSTRUCTURE
     1 32O         1 TEMP              0 ****  ****    0 ROOT
