@<TRIPOS>MOLECULE
32P
   74    76     1     0     0
SMALL
No Charge or Current Charge


@<TRIPOS>ATOM
      1 C1          -8.1700     1.3970    -2.3180 ca         1 32P      -0.108500
      2 C2          -7.7850     2.7370    -2.4960 ca         1 32P      -0.095000
      3 C3          -6.4240     3.0850    -2.4580 ca         1 32P      -0.108500
      4 C4          -5.4490     2.0940    -2.2430 ca         1 32P      -0.084500
      5 C5          -5.8310     0.7510    -2.0620 ca         1 32P      -0.096300
      6 C6          -7.1960     0.4060    -2.1030 ca         1 32P      -0.084500
      7 S1          -4.3300    -0.5880    -0.0960 s6         1 32P       1.300700
      8 O1          -3.2600    -1.8180    -0.3500 os         1 32P      -0.446800
      9 O2          -5.4970    -1.1200     0.6210 o          1 32P      -0.518500
     10 O3          -3.6160     0.5960     0.4040 o          1 32P      -0.518500
     11 C7          -4.7730    -0.3240    -1.8300 c3         1 32P      -0.263100
     12 C8          -1.9400    -1.5190    -0.5660 ca         1 32P       0.151100
     13 C9          -1.1020    -1.2180     0.5170 ca         1 32P      -0.183000
     14 C10          0.2590    -0.9340     0.2870 ca         1 32P       0.157100
     15 C11          0.7690    -0.9680    -1.0220 ca         1 32P      -0.118000
     16 C12         -0.0640    -1.2940    -2.1240 ca         1 32P      -0.097600
     17 C13         -1.4260    -1.5750    -1.8690 ca         1 32P      -0.120000
     18 O4           1.1330    -0.6200     1.3070 os         1 32P      -0.307100
     19 C14          0.4580    -1.3520    -3.5480 c          1 32P       0.611700
     20 C15          0.7150    -0.5460     2.6910 c3         1 32P       0.070600
     21 C16          1.8790    -0.1710     3.6360 c          1 32P       0.603100
     22 N1           1.5340    -0.0870     4.9700 ns         1 32P      -0.511900
     23 O5           3.0250     0.0410     3.2570 o          1 32P      -0.569100
     24 N2           1.7930    -1.0660    -3.7310 ns         1 32P      -0.501900
     25 O6          -0.2660    -1.6350    -4.4940 o          1 32P      -0.598100
     26 C17          2.4860    -1.0800    -5.0170 c3         1 32P       0.169000
     27 C18          2.7850    -2.5210    -5.4790 c3         1 32P      -0.102100
     28 C19          2.0480     0.6230     9.9560 c3         1 32P      -0.078400
     29 C20          2.7390     0.6150     8.5740 c3         1 32P      -0.073400
     30 C21          1.7770     0.2600     7.4190 c3         1 32P      -0.095400
     31 C22          2.4700     0.2530     6.0430 c3         1 32P       0.105000
     32 N3           2.3280     0.9740    12.4100 n8         1 32P      -0.995200
     33 C23          3.0140     0.9780    11.1060 c3         1 32P       0.149800
     34 C24          3.8300     0.9800    -5.6640 ca         1 32P      -0.071500
     35 C25          3.7480    -0.2240    -4.9320 ca         1 32P      -0.127300
     36 C26          4.8340    -0.6120    -4.1160 ca         1 32P      -0.071500
     37 C27          5.9870     0.1900    -4.0420 ca         1 32P      -0.153000
     38 C28          6.0590     1.3810    -4.7790 ca         1 32P       0.180000
     39 C29          4.9850     1.7790    -5.5880 ca         1 32P      -0.153000
     40 F1           7.1670     2.1500    -4.7060 f          1 32P      -0.176000
     41 H1          -9.2230     1.1260    -2.3480 ha         1 32P       0.118500
     42 H2          -8.5390     3.5030    -2.6630 ha         1 32P       0.116000
     43 H3          -6.1240     4.1210    -2.5960 ha         1 32P       0.118500
     44 H4          -4.3980     2.3730    -2.2150 ha         1 32P       0.121500
     45 H6          -7.5040    -0.6280    -1.9670 ha         1 32P       0.121500
     46 H71         -3.8410    -0.0600    -2.3390 h1         1 32P       0.108700
     47 H72         -5.1170    -1.2960    -2.1980 h1         1 32P       0.108700
     48 H9          -1.5210    -1.2080     1.5180 ha         1 32P       0.137000
     49 H11          1.8220    -0.7440    -1.1580 ha         1 32P       0.140000
     50 H13         -2.0910    -1.8400    -2.6870 ha         1 32P       0.148000
     51 H151        -0.0690     0.2100     2.8180 h1         1 32P       0.055700
     52 H152         0.3180    -1.5120     3.0260 h1         1 32P       0.055700
     53 HN1          0.5680    -0.2750     5.2110 hn         1 32P       0.313500
     54 HN2          2.3270    -0.8200    -2.9100 hn         1 32P       0.323500
     55 H17          1.8160    -0.6280    -5.7620 h1         1 32P       0.070700
     56 H181         3.3910    -3.0580    -4.7420 hc         1 32P       0.048033
     57 H182         1.8540    -3.0810    -5.6280 hc         1 32P       0.048033
     58 H183         3.3280    -2.5100    -6.4310 hc         1 32P       0.048033
     59 H191         1.2220     1.3450     9.9410 hc         1 32P       0.047200
     60 H192         1.6100    -0.3650    10.1450 hc         1 32P       0.047200
     61 H201         3.5660    -0.1060     8.5890 hc         1 32P       0.042200
     62 H202         3.1790     1.6030     8.3860 hc         1 32P       0.042200
     63 H211         0.9510     0.9820     7.4010 hc         1 32P       0.044700
     64 H212         1.3380    -0.7280     7.6050 hc         1 32P       0.044700
     65 H221         3.2880    -0.4800     6.0460 h1         1 32P       0.055200
     66 H222         2.8970     1.2450     5.8410 h1         1 32P       0.055200
     67 HN31         2.9900     1.2760    13.1370 hn         1 32P       0.392000
     68 HN32         1.6150     1.7140    12.4140 hn         1 32P       0.392000
     69 H231         3.8350     0.2470    11.1380 h1         1 32P       0.027200
     70 H232         3.4430     1.9750    10.9350 h1         1 32P       0.027200
     71 H24          3.0010     1.2980    -6.2930 ha         1 32P       0.121000
     72 H26          4.7870    -1.5320    -3.5370 ha         1 32P       0.121000
     73 H27          6.8220    -0.1100    -3.4150 ha         1 32P       0.135000
     74 H29          5.0470     2.7050    -6.1540 ha         1 32P       0.135000
@<TRIPOS>BOND
     1     1     2 ar  
     2     1     6 ar  
     3     1    41 1   
     4     2     3 ar  
     5     2    42 1   
     6     3     4 ar  
     7     3    43 1   
     8     4     5 ar  
     9     4    44 1   
    10     5     6 ar  
    11     5    11 1   
    12     6    45 1   
    13     7     8 1   
    14     7     9 2   
    15     7    10 2   
    16     7    11 1   
    17     8    12 1   
    18    11    46 1   
    19    11    47 1   
    20    12    13 ar  
    21    12    17 ar  
    22    13    14 ar  
    23    13    48 1   
    24    14    15 ar  
    25    14    18 1   
    26    15    16 ar  
    27    15    49 1   
    28    16    17 ar  
    29    16    19 1   
    30    17    50 1   
    31    18    20 1   
    32    19    24 1   
    33    19    25 2   
    34    20    21 1   
    35    20    51 1   
    36    20    52 1   
    37    21    22 1   
    38    21    23 2   
    39    22    31 1   
    40    22    53 1   
    41    24    26 1   
    42    24    54 1   
    43    26    27 1   
    44    26    35 1   
    45    26    55 1   
    46    27    56 1   
    47    27    57 1   
    48    27    58 1   
    49    28    29 1   
    50    28    33 1   
    51    28    59 1   
    52    28    60 1   
    53    29    30 1   
    54    29    61 1   
    55    29    62 1   
    56    30    31 1   
    57    30    63 1   
    58    30    64 1   
    59    31    65 1   
    60    31    66 1   
    61    32    33 1   
    62    32    67 1   
    63    32    68 1   
    64    33    69 1   
    65    33    70 1   
    66    34    35 ar  
    67    34    39 ar  
    68    34    71 1   
    69    35    36 ar  
    70    36    37 ar  
    71    36    72 1   
    72    37    38 ar  
    73    37    73 1   
    74    38    39 ar  
    75    38    40 1   
    76    39    74 1   
@<TRIPOS>SUBSTRUCTURE
     1 32P         1 TEMP              0 ****  ****    0 ROOT
