@<TRIPOS>MOLECULE
32P
   74    76     1     0     0
SMALL
abcg2


@<TRIPOS>ATOM
      1 C1          -7.7210     1.6820    -2.5370 ca         1 32P      -0.108500
      2 C2          -7.2310     2.9330    -2.8900 ca         1 32P      -0.095000
      3 C3          -5.8610     3.1410    -2.9780 ca         1 32P      -0.108500
      4 C4          -4.9820     2.1010    -2.7110 ca         1 32P      -0.084500
      5 C5          -5.4690     0.8450    -2.3610 ca         1 32P      -0.096300
      6 C6          -6.8430     0.6420    -2.2680 ca         1 32P      -0.084500
      7 S1          -4.1310    -0.2480    -0.3110 s6         1 32P       1.300700
      8 O1          -3.1750    -1.5630    -0.1510 os         1 32P      -0.446800
      9 O2          -5.3080    -0.5740     0.4580 o          1 32P      -0.518500
     10 O3          -3.3580     0.9350    -0.0010 o          1 32P      -0.518500
     11 C7          -4.5210    -0.2750    -2.0610 c3         1 32P      -0.263100
     12 C8          -1.8090    -1.4330    -0.3370 ca         1 32P       0.151100
     13 C9          -1.0330    -1.0680     0.7540 ca         1 32P      -0.183000
     14 C10          0.3450    -0.9960     0.5910 ca         1 32P       0.157100
     15 C11          0.9130    -1.2530    -0.6590 ca         1 32P      -0.118000
     16 C12          0.1110    -1.6030    -1.7320 ca         1 32P      -0.097600
     17 C13         -1.2700    -1.7160    -1.5720 ca         1 32P      -0.120000
     18 O4           1.2040    -0.6880     1.5750 os         1 32P      -0.307100
     19 C14          0.6780    -1.9080    -3.0850 c          1 32P       0.611700
     20 C15          0.7030    -0.5260     2.8770 c3         1 32P       0.070600
     21 C16          1.8910    -0.4220     3.8210 c          1 32P       0.603100
     22 N1           1.5870     0.1250     5.0030 ns         1 32P      -0.511900
     23 O5           2.9920    -0.8560     3.5280 o          1 32P      -0.569100
     24 N2           1.8020    -1.2520    -3.4100 ns         1 32P      -0.501900
     25 O6           0.1210    -2.6980    -3.8330 o          1 32P      -0.598100
     26 C17          2.4720    -1.4250    -4.6950 c3         1 32P       0.169000
     27 C18          3.2960    -2.7090    -4.7310 c3         1 32P      -0.102100
     28 C19          1.9810     0.5190     9.9510 c3         1 32P      -0.078400
     29 C20          2.7140     0.3750     8.6230 c3         1 32P      -0.073400
     30 C21          1.7670     0.3320     7.4310 c3         1 32P      -0.095400
     31 C22          2.5150     0.1970     6.1150 c3         1 32P       0.105000
     32 N3           2.1860     0.6810    12.3900 n8         1 32P      -0.995200
     33 C23          2.9250     0.5380    11.1430 c3         1 32P       0.149800
     34 C24          2.9440     0.6780    -5.9950 ca         1 32P      -0.071500
     35 C25          3.3040    -0.1970    -4.9760 ca         1 32P      -0.127300
     36 C26          4.4350     0.0950    -4.2160 ca         1 32P      -0.071500
     37 C27          5.1900     1.2310    -4.4620 ca         1 32P      -0.153000
     38 C28          4.8010     2.0740    -5.4860 ca         1 32P       0.180000
     39 C29          3.6890     1.8190    -6.2620 ca         1 32P      -0.153000
     40 F1           5.5270     3.1760    -5.7300 f          1 32P      -0.176000
     41 H1          -8.7880     1.5160    -2.4700 ha         1 32P       0.118500
     42 H2          -7.9170     3.7430    -3.1010 ha         1 32P       0.116000
     43 H3          -5.4760     4.1120    -3.2570 ha         1 32P       0.118500
     44 H4          -3.9140     2.2650    -2.7880 ha         1 32P       0.121500
     45 H6          -7.2280    -0.3320    -1.9960 ha         1 32P       0.121500
     46 H71         -3.5790    -0.1750    -2.6020 h1         1 32P       0.108700
     47 H72         -4.9470    -1.2560    -2.2720 h1         1 32P       0.108700
     48 H9          -1.5130    -0.8650     1.7010 ha         1 32P       0.137000
     49 H11          1.9920    -1.2060    -0.7520 ha         1 32P       0.140000
     50 H13         -1.8980    -2.0230    -2.3980 ha         1 32P       0.148000
     51 H151         0.0630     0.3600     2.9520 h1         1 32P       0.055700
     52 H152         0.1050    -1.3930     3.1850 h1         1 32P       0.055700
     53 HN1          0.6730     0.5310     5.1310 hn         1 32P       0.313500
     54 HN2          2.1310    -0.5150    -2.8070 hn         1 32P       0.323500
     55 H17          1.6990    -1.4930    -5.4640 h1         1 32P       0.070700
     56 H181         4.0690    -2.7140    -3.9620 hc         1 32P       0.048033
     57 H182         2.6600    -3.5790    -4.5780 hc         1 32P       0.048033
     58 H183         3.7820    -2.8130    -5.7020 hc         1 32P       0.048033
     59 H191         1.3910     1.4430     9.9410 hc         1 32P       0.047200
     60 H192         1.2670    -0.3020    10.0720 hc         1 32P       0.047200
     61 H201         3.3190    -0.5380     8.6380 hc         1 32P       0.042200
     62 H202         3.4170     1.2050     8.5010 hc         1 32P       0.042200
     63 H211         1.1580     1.2420     7.4170 hc         1 32P       0.044700
     64 H212         1.0750    -0.5080     7.5420 hc         1 32P       0.044700
     65 H221         3.1220    -0.7100     6.1230 h1         1 32P       0.055200
     66 H222         3.2020     1.0390     5.9870 h1         1 32P       0.055200
     67 HN31         2.8300     0.6470    13.1700 hn         1 32P       0.392000
     68 HN32         1.7690     1.6040    12.4240 hn         1 32P       0.392000
     69 H231         3.4730    -0.4080    11.1770 h1         1 32P       0.027200
     70 H232         3.6780     1.3240    10.9870 h1         1 32P       0.027200
     71 H24          2.0660     0.4720    -6.5940 ha         1 32P       0.121000
     72 H26          4.7480    -0.5680    -3.4180 ha         1 32P       0.121000
     73 H27          6.0680     1.4540    -3.8690 ha         1 32P       0.135000
     74 H29          3.4040     2.4950    -7.0570 ha         1 32P       0.135000
@<TRIPOS>BOND
     1     1     2 ar  
     2     1     6 ar  
     3     1    41 1   
     4     2     3 ar  
     5     2    42 1   
     6     3     4 ar  
     7     3    43 1   
     8     4     5 ar  
     9     4    44 1   
    10     5     6 ar  
    11     5    11 1   
    12     6    45 1   
    13     7     8 1   
    14     7     9 2   
    15     7    10 2   
    16     7    11 1   
    17     8    12 1   
    18    11    46 1   
    19    11    47 1   
    20    12    13 ar  
    21    12    17 ar  
    22    13    14 ar  
    23    13    48 1   
    24    14    15 ar  
    25    14    18 1   
    26    15    16 ar  
    27    15    49 1   
    28    16    17 ar  
    29    16    19 1   
    30    17    50 1   
    31    18    20 1   
    32    19    24 1   
    33    19    25 2   
    34    20    21 1   
    35    20    51 1   
    36    20    52 1   
    37    21    22 1   
    38    21    23 2   
    39    22    31 1   
    40    22    53 1   
    41    24    26 1   
    42    24    54 1   
    43    26    27 1   
    44    26    35 1   
    45    26    55 1   
    46    27    56 1   
    47    27    57 1   
    48    27    58 1   
    49    28    29 1   
    50    28    33 1   
    51    28    59 1   
    52    28    60 1   
    53    29    30 1   
    54    29    61 1   
    55    29    62 1   
    56    30    31 1   
    57    30    63 1   
    58    30    64 1   
    59    31    65 1   
    60    31    66 1   
    61    32    33 1   
    62    32    67 1   
    63    32    68 1   
    64    33    69 1   
    65    33    70 1   
    66    34    35 ar  
    67    34    39 ar  
    68    34    71 1   
    69    35    36 ar  
    70    36    37 ar  
    71    36    72 1   
    72    37    38 ar  
    73    37    73 1   
    74    38    39 ar  
    75    38    40 1   
    76    39    74 1   
@<TRIPOS>SUBSTRUCTURE
     1 32P         1 TEMP              0 ****  ****    0 ROOT
