@<TRIPOS>MOLECULE
32Q
   52    53     1     0     0
SMALL
bcc


@<TRIPOS>ATOM
      1 P11         -1.1420     0.2460    -0.1760 p5         1 32Q       1.089400
      2 C1          -3.8640     0.9210    -0.4500 c3         1 32Q      -0.061400
      3 C3          -2.4960     1.5190    -0.0980 c3         1 32Q      -0.029700
      4 C6          -4.4650    -0.0350     0.5840 c3         1 32Q      -0.053100
      5 C8          -5.8350    -0.4880     0.1690 ca         1 32Q      -0.034300
      6 N10         -2.1330     2.6260    -0.9810 n8         1 32Q      -0.857800
      7 C11          0.3520     1.2080     0.2890 c3         1 32Q      -0.245600
      8 O12         -1.0210    -0.1680    -1.6350 o          1 32Q      -0.821000
      9 C13          1.6530     0.4230     0.1150 c3         1 32Q      -0.147700
     10 O13         -1.4010    -0.8280     0.8650 o          1 32Q      -0.821000
     11 C15          1.7550    -0.7550     1.1010 c          1 32Q       0.939600
     12 C16          2.8520     1.3660     0.3010 c3         1 32Q      -0.019100
     13 C17         -5.9930    -1.5980    -0.6610 ca         1 32Q      -0.129500
     14 C18          4.1800     0.6900     0.1090 ca         1 32Q      -0.005300
     15 C19         -7.2500    -1.9930    -1.0980 ca         1 32Q      -0.142500
     16 C20         -8.3790    -1.2810    -0.7110 ca         1 32Q      -0.163000
     17 C21         -8.2370    -0.1750     0.1160 ca         1 32Q      -0.142500
     18 C22         -6.9760     0.2160     0.5500 ca         1 32Q      -0.129500
     19 O23          1.7630    -0.4590     2.3150 o          1 32Q      -0.851300
     20 O24          1.8550    -1.9030     0.6240 o          1 32Q      -0.851300
     21 N24          8.8700    -0.5300    -1.3330 n8         1 32Q      -0.883800
     22 C36          4.7290     0.5410    -1.1650 ca         1 32Q      -0.122000
     23 C37          5.9480    -0.0910    -1.3560 ca         1 32Q      -0.125000
     24 C38          6.6630    -0.6040    -0.2750 ca         1 32Q      -0.137300
     25 C39          6.1200    -0.4540     0.9960 ca         1 32Q      -0.125000
     26 C40          4.8970     0.1790     1.1850 ca         1 32Q      -0.122000
     27 H11         -4.5680     1.7510    -0.5930 hc         1 32Q       0.014700
     28 H12         -3.7920     0.4150    -1.4190 hc         1 32Q       0.014700
     29 H31         -2.5350     1.9060     0.9280 h1         1 32Q       0.049700
     30 H61         -3.8040    -0.8920     0.7140 hc         1 32Q       0.079700
     31 H62         -4.5160     0.4720     1.5520 hc         1 32Q       0.079700
     32 H101        -2.0190     2.2650    -1.9210 hn         1 32Q       0.311300
     33 H102        -2.9010     3.2860    -1.0290 hn         1 32Q       0.311300
     34 H111         0.3730     2.1040    -0.3370 hc         1 32Q       0.029700
     35 H112         0.2620     1.5510     1.3240 hc         1 32Q       0.029700
     36 H131         1.6860     0.0330    -0.9070 hc         1 32Q       0.047700
     37 H161         2.7630     2.1920    -0.4110 hc         1 32Q       0.022700
     38 H162         2.8010     1.8030     1.3010 hc         1 32Q       0.022700
     39 H171        -5.1180    -2.1600    -0.9680 ha         1 32Q       0.138500
     40 H191        -7.3490    -2.8600    -1.7390 ha         1 32Q       0.109500
     41 H201        -9.3600    -1.5880    -1.0480 ha         1 32Q       0.104000
     42 H211        -9.1100     0.3860     0.4260 ha         1 32Q       0.109500
     43 H221        -6.8780     1.0790     1.1990 ha         1 32Q       0.138500
     44 H231         7.8050    -2.2660    -0.9680 h1         1 32Q       0.020700
     45 H232         8.4090    -1.5400     0.5070 h1         1 32Q       0.020700
     46 H241         9.1490     0.3140    -0.8480 hn         1 32Q       0.319800
     47 H242         9.7210    -1.0540    -1.4910 hn         1 32Q       0.319800
     48 H361         4.1950     0.9350    -2.0230 ha         1 32Q       0.139500
     49 H371         6.3550    -0.1820    -2.3560 ha         1 32Q       0.106000
     50 H391         6.6610    -0.8320     1.8570 ha         1 32Q       0.106000
     51 H401         4.4940     0.2770     2.1860 ha         1 32Q       0.139500
     52 C23          7.9820    -1.3030    -0.4780 c3         1 32Q       0.205100
@<TRIPOS>BOND
     1     1     3 1   
     2     1     7 1   
     3     1     8 1   
     4     1    10 1   
     5     2     3 1   
     6     2     4 1   
     7     2    27 1   
     8     2    28 1   
     9     3     6 1   
    10     3    29 1   
    11     4     5 1   
    12     4    30 1   
    13     4    31 1   
    14     5    13 ar  
    15     5    18 ar  
    16     6    32 1   
    17     6    33 1   
    18     7     9 1   
    19     7    34 1   
    20     7    35 1   
    21     9    11 1   
    22     9    12 1   
    23     9    36 1   
    24    11    19 1   
    25    11    20 1   
    26    12    14 1   
    27    12    37 1   
    28    12    38 1   
    29    13    15 ar  
    30    13    39 1   
    31    14    22 ar  
    32    14    26 ar  
    33    15    16 ar  
    34    15    40 1   
    35    16    17 ar  
    36    16    41 1   
    37    17    18 ar  
    38    17    42 1   
    39    18    43 1   
    40    21    46 1   
    41    21    47 1   
    42    21    52 1   
    43    22    23 ar  
    44    22    48 1   
    45    23    24 ar  
    46    23    49 1   
    47    24    25 ar  
    48    24    52 1   
    49    25    26 ar  
    50    25    50 1   
    51    26    51 1   
    52    44    52 1   
    53    45    52 1   
@<TRIPOS>SUBSTRUCTURE
     1 32Q         1 TEMP              0 ****  ****    0 ROOT
