@<TRIPOS>MOLECULE
32Q
   52    53     1     0     0
SMALL
No Charge or Current Charge


@<TRIPOS>ATOM
      1 P11         -1.1660     0.2200     0.0740 p5         1 32Q       1.405000
      2 C1          -3.9240     0.9400    -0.5490 c3         1 32Q      -0.061400
      3 C3          -2.5520     1.5490    -0.1300 c3         1 32Q      -0.187500
      4 C6          -4.5040    -0.1250     0.4140 c3         1 32Q      -0.053100
      5 C8          -5.9260    -0.5220     0.0370 ca         1 32Q      -0.034300
      6 N10         -2.3480     2.8110    -0.9570 n8         1 32Q      -0.968200
      7 C11          0.3880     1.2240     0.2420 c3         1 32Q      -0.403400
      8 O12         -1.0770    -0.6310    -1.1580 o          1 32Q      -0.821000
      9 C13          1.7380     0.4260     0.2180 c3         1 32Q      -0.147700
     10 O13         -1.3890    -0.5800     1.3200 o          1 32Q      -0.821000
     11 C15          1.8340    -0.6620     1.3300 c          1 32Q       0.729000
     12 C16          2.9590     1.3840     0.2630 c3         1 32Q      -0.019100
     13 C17         -6.1520    -1.4810    -0.9700 ca         1 32Q      -0.111500
     14 C18          4.2860     0.6700     0.0290 ca         1 32Q      -0.005300
     15 C19         -7.4630    -1.8480    -1.3200 ca         1 32Q      -0.124500
     16 C20         -8.5570    -1.2580    -0.6660 ca         1 32Q      -0.145000
     17 C21         -8.3390    -0.2990     0.3380 ca         1 32Q      -0.124500
     18 C22         -7.0280     0.0680     0.6880 ca         1 32Q      -0.111500
     19 O23          1.8470    -0.3080     2.5020 o          1 32Q      -0.746000
     20 O24          1.9280    -1.8320     0.9850 o          1 32Q      -0.746000
     21 N24          9.1620    -0.4000    -0.9160 n8         1 32Q      -0.994200
     22 C36          4.6670     0.2890    -1.2720 ca         1 32Q      -0.104000
     23 C37          5.8920    -0.3640    -1.4930 ca         1 32Q      -0.107000
     24 C38          6.7550    -0.6430    -0.4160 ca         1 32Q      -0.137300
     25 C39          6.3740    -0.2620     0.8860 ca         1 32Q      -0.107000
     26 C40          5.1490     0.3910     1.1070 ca         1 32Q      -0.104000
     27 H11         -4.6620     1.7490    -0.6280 hc         1 32Q       0.014700
     28 H12         -3.8360     0.5020    -1.5510 hc         1 32Q       0.014700
     29 H31         -2.6630     1.8920     0.9080 h1         1 32Q       0.049700
     30 H61         -3.8700    -1.0180     0.4080 hc         1 32Q       0.079700
     31 H62         -4.4810     0.2630     1.4400 hc         1 32Q       0.079700
     32 H101        -2.1740     2.5640    -1.9390 hn         1 32Q       0.366500
     33 H102        -3.2190     3.3540    -0.9900 hn         1 32Q       0.366500
     34 H111         0.3780     1.9480    -0.5790 hc         1 32Q       0.029700
     35 H112         0.3010     1.7890     1.1760 hc         1 32Q       0.029700
     36 H131         1.7740    -0.0960    -0.7460 hc         1 32Q       0.047700
     37 H161         2.8330     2.1590    -0.5020 hc         1 32Q       0.022700
     38 H162         2.9720     1.9130     1.2240 hc         1 32Q       0.022700
     39 H171        -5.3090    -1.9420    -1.4820 ha         1 32Q       0.120500
     40 H191        -7.6300    -2.5900    -2.0980 ha         1 32Q       0.091500
     41 H201        -9.5710    -1.5420    -0.9370 ha         1 32Q       0.086000
     42 H211        -9.1850     0.1600     0.8440 ha         1 32Q       0.091500
     43 H221        -6.8690     0.8130     1.4650 ha         1 32Q       0.120500
     44 H231         7.9900    -2.0380    -1.5110 h1         1 32Q       0.020700
     45 H232         8.3430    -1.9530     0.2320 h1         1 32Q       0.020700
     46 H241         9.2680     0.2010    -0.0920 hn         1 32Q       0.375000
     47 H242        10.0490    -0.9130    -0.9670 hn         1 32Q       0.375000
     48 H361         4.0100     0.5000    -2.1130 ha         1 32Q       0.121500
     49 H371         6.1720    -0.6520    -2.5040 ha         1 32Q       0.088000
     50 H391         7.0280    -0.4730     1.7300 ha         1 32Q       0.088000
     51 H401         4.8670     0.6770     2.1170 ha         1 32Q       0.121500
     52 C23          8.0780    -1.3580    -0.6530 c3         1 32Q       0.205100
@<TRIPOS>BOND
     1     1     3 1   
     2     1     7 1   
     3     1     8 1   
     4     1    10 1   
     5     2     3 1   
     6     2     4 1   
     7     2    27 1   
     8     2    28 1   
     9     3     6 1   
    10     3    29 1   
    11     4     5 1   
    12     4    30 1   
    13     4    31 1   
    14     5    13 ar  
    15     5    18 ar  
    16     6    32 1   
    17     6    33 1   
    18     7     9 1   
    19     7    34 1   
    20     7    35 1   
    21     9    11 1   
    22     9    12 1   
    23     9    36 1   
    24    11    19 1   
    25    11    20 1   
    26    12    14 1   
    27    12    37 1   
    28    12    38 1   
    29    13    15 ar  
    30    13    39 1   
    31    14    22 ar  
    32    14    26 ar  
    33    15    16 ar  
    34    15    40 1   
    35    16    17 ar  
    36    16    41 1   
    37    17    18 ar  
    38    17    42 1   
    39    18    43 1   
    40    21    46 1   
    41    21    47 1   
    42    21    52 1   
    43    22    23 ar  
    44    22    48 1   
    45    23    24 ar  
    46    23    49 1   
    47    24    25 ar  
    48    24    52 1   
    49    25    26 ar  
    50    25    50 1   
    51    26    51 1   
    52    44    52 1   
    53    45    52 1   
@<TRIPOS>SUBSTRUCTURE
     1 32Q         1 TEMP              0 ****  ****    0 ROOT
