@<TRIPOS>MOLECULE
32R
   52    53     1     0     0
SMALL
No Charge or Current Charge


@<TRIPOS>ATOM
      1 P11         -1.2050     0.2670    -0.1510 p5         1 32R       1.361000
      2 C1          -4.0080     0.8710     0.3250 c3         1 32R      -0.030400
      3 C3          -2.5720     1.2260     0.8170 c3         1 32R      -0.188500
      4 C6          -4.3970    -0.6240     0.4320 c3         1 32R      -0.053100
      5 C8          -5.8670    -0.8570     0.1060 ca         1 32R      -0.034300
      6 N10         -2.4970     2.7360     1.0150 n8         1 32R      -1.010200
      7 C11          0.3440     1.1590     0.3540 c3         1 32R      -0.401400
      8 O12         -1.4220     0.4020    -1.6270 o          1 32R      -0.807500
      9 C13          1.6940     0.4430     0.0030 c3         1 32R      -0.148700
     10 O13         -1.1320    -1.1570     0.3080 o          1 32R      -0.807500
     11 C15          1.8570     0.1470    -1.5200 c          1 32R       0.728000
     12 C16          2.9120     1.2310     0.5550 c3         1 32R      -0.019100
     13 C17         -6.2840    -0.9910    -1.2340 ca         1 32R      -0.110500
     14 C18          4.2260     0.4670     0.4240 ca         1 32R      -0.008300
     15 C19         -7.6400    -1.2040    -1.5370 ca         1 32R      -0.124500
     16 C20         -8.5870    -1.2840    -0.5030 ca         1 32R      -0.145000
     17 C21         -8.1790    -1.1490     0.8340 ca         1 32R      -0.124500
     18 C22         -6.8230    -0.9360     1.1380 ca         1 32R      -0.110500
     19 O23          1.9350     1.0890    -2.2980 o          1 32R      -0.743500
     20 O24          1.9310    -1.0200    -1.8760 o          1 32R      -0.743500
     21 N24          9.0410    -1.0920     0.8690 n8         1 32R      -0.993200
     22 C36          5.1490     0.8010    -0.5850 ca         1 32R      -0.103000
     23 C37          6.3620     0.0980    -0.7000 ca         1 32R      -0.107500
     24 C38          6.6680    -0.9460     0.1940 ca         1 32R      -0.135300
     25 C39          5.7440    -1.2800     1.2030 ca         1 32R      -0.107500
     26 C40          4.5310    -0.5770     1.3180 ca         1 32R      -0.103000
     27 H11         -4.7360     1.4450     0.9140 hc         1 32R       0.029700
     28 H12         -4.1280     1.1960    -0.7160 hc         1 32R       0.029700
     29 H31         -2.4670     0.7960     1.8220 h1         1 32R       0.034700
     30 H61         -3.7790    -1.2200    -0.2480 hc         1 32R       0.070700
     31 H62         -4.1750    -0.9830     1.4450 hc         1 32R       0.070700
     32 H101        -1.5800     2.9910     1.4080 hn         1 32R       0.387000
     33 H102        -2.5000     3.2110     0.1020 hn         1 32R       0.387000
     34 H111         0.3170     2.1510    -0.1090 hc         1 32R       0.018700
     35 H112         0.2800     1.3040     1.4390 hc         1 32R       0.018700
     36 H131         1.6770    -0.5260     0.5160 hc         1 32R       0.053700
     37 H161         2.9800     2.2010     0.0480 hc         1 32R       0.021700
     38 H162         2.7380     1.4590     1.6140 hc         1 32R       0.021700
     39 H171        -5.5560    -0.9290    -2.0400 ha         1 32R       0.120500
     40 H191        -7.9550    -1.3070    -2.5730 ha         1 32R       0.091500
     41 H201        -9.6360    -1.4480    -0.7380 ha         1 32R       0.086000
     42 H211        -8.9120    -1.2090     1.6350 ha         1 32R       0.091500
     43 H221        -6.5150    -0.8300     2.1760 ha         1 32R       0.120500
     44 H231         8.2960    -1.7280    -0.9870 h1         1 32R       0.020200
     45 H232         7.8410    -2.7500     0.3970 h1         1 32R       0.020200
     46 H241         9.9250    -1.5750     0.6730 hn         1 32R       0.375500
     47 H242         9.1930    -0.1400     0.5210 hn         1 32R       0.375500
     48 H361         4.9250     1.6040    -1.2840 ha         1 32R       0.120500
     49 H371         7.0630     0.3660    -1.4870 ha         1 32R       0.090500
     50 H391         5.9660    -2.0840     1.9010 ha         1 32R       0.090500
     51 H401         3.8270    -0.8440     2.1030 ha         1 32R       0.120500
     52 C23          7.9770    -1.7120     0.0640 c3         1 32R       0.205100
@<TRIPOS>BOND
     1     1     3 1   
     2     1     7 1   
     3     1     8 1   
     4     1    10 1   
     5     2     3 1   
     6     2     4 1   
     7     2    27 1   
     8     2    28 1   
     9     3     6 1   
    10     3    29 1   
    11     4     5 1   
    12     4    30 1   
    13     4    31 1   
    14     5    13 ar  
    15     5    18 ar  
    16     6    32 1   
    17     6    33 1   
    18     7     9 1   
    19     7    34 1   
    20     7    35 1   
    21     9    11 1   
    22     9    12 1   
    23     9    36 1   
    24    11    19 1   
    25    11    20 1   
    26    12    14 1   
    27    12    37 1   
    28    12    38 1   
    29    13    15 ar  
    30    13    39 1   
    31    14    22 ar  
    32    14    26 ar  
    33    15    16 ar  
    34    15    40 1   
    35    16    17 ar  
    36    16    41 1   
    37    17    18 ar  
    38    17    42 1   
    39    18    43 1   
    40    21    46 1   
    41    21    47 1   
    42    21    52 1   
    43    22    23 ar  
    44    22    48 1   
    45    23    24 ar  
    46    23    49 1   
    47    24    25 ar  
    48    24    52 1   
    49    25    26 ar  
    50    25    50 1   
    51    26    51 1   
    52    44    52 1   
    53    45    52 1   
@<TRIPOS>SUBSTRUCTURE
     1 32R         1 TEMP              0 ****  ****    0 ROOT
