@<TRIPOS>MOLECULE
32R
   52    53     1     0     0
SMALL
abcg2


@<TRIPOS>ATOM
      1 P11         -1.1830     0.3780    -0.1720 p5         1 32R       1.361000
      2 C1          -3.9280     0.8470     0.2490 c3         1 32R      -0.030400
      3 C3          -2.5420     1.3270     0.6770 c3         1 32R      -0.188500
      4 C6          -4.3010    -0.5660     0.7030 c3         1 32R      -0.053100
      5 C8          -5.7080    -0.9120     0.3040 ca         1 32R      -0.034300
      6 N10         -2.4580     2.7670     0.4110 n8         1 32R      -1.010200
      7 C11          0.3270     1.2470     0.4290 c3         1 32R      -0.401400
      8 O12         -1.3580     0.6000    -1.6640 o          1 32R      -0.807500
      9 C13          1.6240     0.5340     0.0480 c3         1 32R      -0.148700
     10 O13         -1.1390    -1.0480     0.3570 o          1 32R      -0.807500
     11 C15          1.8870     0.6030    -1.4690 c          1 32R       0.728000
     12 C16          2.8020     1.1650     0.8070 c3         1 32R      -0.019100
     13 C17         -5.9720    -1.5320    -0.9160 ca         1 32R      -0.110500
     14 C18          4.1140     0.4860     0.5370 ca         1 32R      -0.008300
     15 C19         -7.2740    -1.8140    -1.3080 ca         1 32R      -0.124500
     16 C20         -8.3400    -1.4790    -0.4820 ca         1 32R      -0.145000
     17 C21         -8.0910    -0.8630     0.7380 ca         1 32R      -0.124500
     18 C22         -6.7870    -0.5820     1.1230 ca         1 32R      -0.110500
     19 O23          2.0050     1.7480    -1.9570 o          1 32R      -0.743500
     20 O24          1.9970    -0.4720    -2.0890 o          1 32R      -0.743500
     21 N24          8.5020    -2.0350     0.9020 n8         1 32R      -0.993200
     22 C36          4.9910     0.9620    -0.4320 ca         1 32R      -0.103000
     23 C37          6.1950     0.3180    -0.6880 ca         1 32R      -0.107500
     24 C38          6.5590    -0.8290     0.0090 ca         1 32R      -0.135300
     25 C39          5.6840    -1.3080     0.9820 ca         1 32R      -0.107500
     26 C40          4.4840    -0.6610     1.2380 ca         1 32R      -0.103000
     27 H11         -4.6640     1.5520     0.6510 hc         1 32R       0.029700
     28 H12         -4.0080     0.9090    -0.8420 hc         1 32R       0.029700
     29 H31         -2.4460     1.1850     1.7610 h1         1 32R       0.034700
     30 H61         -3.6010    -1.2870     0.2810 hc         1 32R       0.070700
     31 H62         -4.2010    -0.6310     1.7900 hc         1 32R       0.070700
     32 H101        -1.6030     3.1390     0.8070 hn         1 32R       0.387000
     33 H102        -2.3690     2.9010    -0.5920 hn         1 32R       0.387000
     34 H111         0.3630     2.2710     0.0510 hc         1 32R       0.018700
     35 H112         0.2550     1.3150     1.5210 hc         1 32R       0.018700
     36 H131         1.5470    -0.5150     0.3480 hc         1 32R       0.053700
     37 H161         2.8700     2.2210     0.5380 hc         1 32R       0.021700
     38 H162         2.5890     1.1260     1.8800 hc         1 32R       0.021700
     39 H171        -5.1470    -1.8010    -1.5660 ha         1 32R       0.120500
     40 H191        -7.4580    -2.2990    -2.2590 ha         1 32R       0.091500
     41 H201        -9.3550    -1.6980    -0.7860 ha         1 32R       0.086000
     42 H211        -8.9140    -0.6020     1.3910 ha         1 32R       0.091500
     43 H221        -6.6010    -0.1020     2.0780 ha         1 32R       0.120500
     44 H231         8.4820    -0.8730    -0.9040 h1         1 32R       0.020200
     45 H232         7.6360    -2.4020    -0.9390 h1         1 32R       0.020200
     46 H241         9.3250    -2.5640     0.6430 hn         1 32R       0.375500
     47 H242         8.8360    -1.2520     1.4490 hn         1 32R       0.375500
     48 H361         4.7290     1.8510    -0.9930 ha         1 32R       0.120500
     49 H371         6.8650     0.7230    -1.4390 ha         1 32R       0.090500
     50 H391         5.9510    -2.1910     1.5490 ha         1 32R       0.090500
     51 H401         3.8230    -1.0540     2.0030 ha         1 32R       0.120500
     52 C23          7.8520    -1.5410    -0.3000 c3         1 32R       0.205100
@<TRIPOS>BOND
     1     1     3 1   
     2     1     7 1   
     3     1     8 1   
     4     1    10 1   
     5     2     3 1   
     6     2     4 1   
     7     2    27 1   
     8     2    28 1   
     9     3     6 1   
    10     3    29 1   
    11     4     5 1   
    12     4    30 1   
    13     4    31 1   
    14     5    13 ar  
    15     5    18 ar  
    16     6    32 1   
    17     6    33 1   
    18     7     9 1   
    19     7    34 1   
    20     7    35 1   
    21     9    11 1   
    22     9    12 1   
    23     9    36 1   
    24    11    19 1   
    25    11    20 1   
    26    12    14 1   
    27    12    37 1   
    28    12    38 1   
    29    13    15 ar  
    30    13    39 1   
    31    14    22 ar  
    32    14    26 ar  
    33    15    16 ar  
    34    15    40 1   
    35    16    17 ar  
    36    16    41 1   
    37    17    18 ar  
    38    17    42 1   
    39    18    43 1   
    40    21    46 1   
    41    21    47 1   
    42    21    52 1   
    43    22    23 ar  
    44    22    48 1   
    45    23    24 ar  
    46    23    49 1   
    47    24    25 ar  
    48    24    52 1   
    49    25    26 ar  
    50    25    50 1   
    51    26    51 1   
    52    44    52 1   
    53    45    52 1   
@<TRIPOS>SUBSTRUCTURE
     1 32R         1 TEMP              0 ****  ****    0 ROOT
