@<TRIPOS>MOLECULE
32S
   23    24     1     0     0
SMALL
No Charge or Current Charge


@<TRIPOS>ATOM
      1 N            1.7130     0.7670     1.3650 n8         1 32S      -0.987200
      2 CA           2.4470    -0.1450     0.4140 c3         1 32S       0.031500
      3 CB           1.5260    -0.5360    -0.7710 c3         1 32S      -0.044100
      4 CG           0.2520    -1.2250    -0.3500 cc         1 32S      -0.078300
      5 CD2         -0.9960    -0.5950    -0.2010 cc         1 32S      -0.100000
      6 CE2         -1.9230    -1.4650     0.1720 cd         1 32S      -0.169000
      7 SEL         -1.6480     1.0170    -0.3790 ss         1 32S      -0.011000
      8 CD1          0.0390    -2.5600    -0.0460 cd         1 32S      -0.186000
      9 NE1         -1.3300    -2.7160     0.2860 na         1 32S      -0.107000
     10 CZ2         -3.2290    -0.9660     0.3580 cd         1 32S      -0.106000
     11 CZ3         -3.2570     0.3940     0.0960 cc         1 32S      -0.140000
     12 C            3.8530     0.3620    -0.1160 c          1 32S       0.723000
     13 O            3.9060     1.4400    -0.6980 o          1 32S      -0.732000
     14 OXT          4.8470    -0.3080     0.1370 o          1 32S      -0.732000
     15 H            1.6100     1.6840     0.9160 hn         1 32S       0.380000
     16 HN2          0.7460     0.4270     1.4380 hn         1 32S       0.380000
     17 HA           2.6470    -1.0720     0.9700 h1         1 32S       0.039700
     18 HB1          1.2910     0.3580    -1.3610 hc         1 32S       0.054700
     19 HB2          2.0840    -1.2020    -1.4410 hc         1 32S       0.054700
     20 HD1          0.7360    -3.3910    -0.0400 h4         1 32S       0.146000
     21 HE1         -1.7920    -3.5790     0.5550 hn         1 32S       0.336000
     22 HZ2         -4.0890    -1.5560     0.6610 ha         1 32S       0.116000
     23 HZ3         -4.0980     1.0750     0.1450 h4         1 32S       0.130000
@<TRIPOS>BOND
     1     1     2 1   
     2     1    15 1   
     3     1    16 1   
     4     2     3 1   
     5     2    12 1   
     6     2    17 1   
     7     3     4 1   
     8     3    18 1   
     9     3    19 1   
    10     4     5 1   
    11     4     8 2   
    12     5     6 2   
    13     5     7 1   
    14     6     9 1   
    15     6    10 1   
    16     7    11 1   
    17     8     9 1   
    18     8    20 1   
    19     9    21 1   
    20    10    11 2   
    21    10    22 1   
    22    11    23 1   
    23    12    13 1   
    24    12    14 1   
@<TRIPOS>SUBSTRUCTURE
     1 32S         1 TEMP              0 ****  ****    0 ROOT
