@<TRIPOS>MOLECULE
32S
   23    24     1     0     0
SMALL
bcc


@<TRIPOS>ATOM
      1 N            1.7330     0.8260     1.2830 n8         1 32S      -0.876800
      2 CA           2.4350    -0.1400     0.4600 c3         1 32S       0.031500
      3 CB           1.6280    -0.6810    -0.7450 c3         1 32S      -0.044100
      4 CG           0.2930    -1.2390    -0.3740 cc         1 32S      -0.078300
      5 CD2         -0.9360    -0.5490    -0.2170 cc         1 32S       0.044900
      6 CE2         -1.9120    -1.4560     0.1690 cd         1 32S      -0.118300
      7 SEL         -1.6670     1.1540    -0.3870 ss         1 32S      -0.300800
      8 CD1          0.0010    -2.5520    -0.0660 cd         1 32S      -0.153300
      9 NE1         -1.3190    -2.6760     0.2590 na         1 32S      -0.158100
     10 CZ2         -3.2280    -0.9420     0.3580 cd         1 32S      -0.124000
     11 CZ3         -3.3070     0.3900     0.1170 cc         1 32S      -0.013100
     12 C            3.7560     0.4430    -0.0840 c          1 32S       0.933600
     13 O            3.8520     1.6840    -0.1480 o          1 32S      -0.837300
     14 OXT          4.6050    -0.3900    -0.4650 o          1 32S      -0.837300
     15 H            1.5890     1.6760     0.7510 hn         1 32S       0.324800
     16 HN2          0.8170     0.4700     1.5270 hn         1 32S       0.324800
     17 HA           2.6750    -1.0020     1.0920 h1         1 32S       0.039700
     18 HB1          1.4930     0.1270    -1.4730 hc         1 32S       0.054700
     19 HB2          2.2230    -1.4500    -1.2410 hc         1 32S       0.054700
     20 HD1          0.6530    -3.4110    -0.0650 h4         1 32S       0.164000
     21 HE1         -1.7740    -3.5390     0.5040 hn         1 32S       0.285700
     22 HZ2         -4.0800    -1.5370     0.6600 ha         1 32S       0.134000
     23 HZ3         -4.1940     1.0020     0.1960 h4         1 32S       0.148000
@<TRIPOS>BOND
     1     1     2 1   
     2     1    15 1   
     3     1    16 1   
     4     2     3 1   
     5     2    12 1   
     6     2    17 1   
     7     3     4 1   
     8     3    18 1   
     9     3    19 1   
    10     4     5 1   
    11     4     8 2   
    12     5     6 2   
    13     5     7 1   
    14     6     9 1   
    15     6    10 1   
    16     7    11 1   
    17     8     9 1   
    18     8    20 1   
    19     9    21 1   
    20    10    11 2   
    21    10    22 1   
    22    11    23 1   
    23    12    13 1   
    24    12    14 1   
@<TRIPOS>SUBSTRUCTURE
     1 32S         1 TEMP              0 ****  ****    0 ROOT
