@<TRIPOS>MOLECULE
32U
   57    59     1     0     0
SMALL
bcc


@<TRIPOS>ATOM
      1 N13         -1.8310    -1.5770    -0.9460 n8         1 32U      -0.858800
      2 C5          -2.2850    -0.3350    -0.3690 c3         1 32U       0.098500
      3 C14         -1.2000     0.7450    -0.3260 c          1 32U       0.638100
      4 O32         -0.2820     0.7430    -1.1370 o          1 32U      -0.654100
      5 C33         -3.4750     0.2250    -1.1710 c3         1 32U      -0.020100
      6 C6          -4.6470    -0.7120    -1.1840 ca         1 32U      -0.076300
      7 C8          -4.8400    -1.6050    -2.2340 ca         1 32U      -0.116000
      8 C12         -5.5540    -0.7230    -0.1270 ca         1 32U      -0.116000
      9 C9          -5.9150    -2.4850    -2.2320 ca         1 32U      -0.125500
     10 C11         -6.6270    -1.6040    -0.1160 ca         1 32U      -0.125500
     11 C10         -6.8110    -2.4890    -1.1710 ca         1 32U      -0.121000
     12 N1          -1.3230     1.7190     0.5920 n          1 32U      -0.456800
     13 C1          -0.3550     2.7960     0.6330 c5         1 32U       0.028700
     14 C7           0.9850     2.2820     1.1460 c          1 32U       0.656100
     15 O22          1.0580     1.4270     2.0120 o          1 32U      -0.587100
     16 C2          -0.9820     3.7920     1.6150 c5         1 32U      -0.081400
     17 C3          -1.7780     2.9090     2.5690 c5         1 32U      -0.094400
     18 C4          -2.2990     1.7860     1.6770 c5         1 32U       0.108000
     19 N23          2.0630     2.8770     0.6120 ns         1 32U      -0.574900
     20 C24          3.4030     2.5420     1.0110 c3         1 32U       0.138300
     21 C25          3.9080     1.2180     0.4890 ca         1 32U      -0.019300
     22 C26          3.2250     0.4830    -0.4720 ca         1 32U      -0.112500
     23 C27          3.7380    -0.7170    -0.9370 ca         1 32U      -0.073000
     24 C28          4.9510    -1.1970    -0.4500 ca         1 32U      -0.272900
     25 C21          5.4980    -2.4650    -0.9490 ce         1 32U       0.526400
     26 N46          4.6780    -3.4430    -1.2550 nv         1 32U      -0.472600
     27 N47          6.7950    -2.5980    -1.0830 nv         1 32U      -0.456700
     28 C29          5.6440    -0.4630     0.5120 ca         1 32U      -0.073000
     29 C30          5.1190     0.7280     0.9780 ca         1 32U      -0.112500
     30 H113        -1.4230    -1.4020    -1.8560 hn         1 32U       0.345300
     31 H213        -1.0860    -1.9630    -0.3780 hn         1 32U       0.345300
     32 H5          -2.6300    -0.5510     0.6460 h1         1 32U       0.080700
     33 H133        -3.7770     1.1880    -0.7530 hc         1 32U       0.053700
     34 H233        -3.1400     0.4250    -2.1940 hc         1 32U       0.053700
     35 H8          -4.1460    -1.6100    -3.0650 ha         1 32U       0.123000
     36 H12A        -5.4230    -0.0300     0.6970 ha         1 32U       0.123000
     37 H9          -6.0520    -3.1690    -3.0600 ha         1 32U       0.133000
     38 H11         -7.3220    -1.5960     0.7140 ha         1 32U       0.133000
     39 H10         -7.6500    -3.1730    -1.1680 ha         1 32U       0.135000
     40 H1          -0.2340     3.2430    -0.3570 h1         1 32U       0.079700
     41 H12         -0.2410     4.4130     2.1190 hc         1 32U       0.064700
     42 H22         -1.6470     4.4590     1.0640 hc         1 32U       0.064700
     43 H13         -1.1320     2.5020     3.3470 hc         1 32U       0.069700
     44 H23         -2.5890     3.4450     3.0580 hc         1 32U       0.069700
     45 H14         -3.2940     2.0200     1.2910 h1         1 32U       0.056200
     46 H24         -2.3610     0.8410     2.2180 h1         1 32U       0.056200
     47 HN23         1.9440     3.5310    -0.1440 hn         1 32U       0.329500
     48 H124         4.0600     3.3350     0.6500 h1         1 32U       0.078200
     49 H224         3.4820     2.5510     2.1000 h1         1 32U       0.078200
     50 H26          2.2840     0.8360    -0.8690 ha         1 32U       0.172500
     51 H27          3.1960    -1.2590    -1.7010 ha         1 32U       0.142000
     52 H146         5.0020    -4.3070    -1.6630 hn         1 32U       0.326700
     53 H147         7.4100    -1.8100    -0.9600 hn         1 32U       0.326700
     54 H247         7.2200    -3.4660    -1.3710 hn         1 32U       0.326700
     55 H29          6.5760    -0.8270     0.9250 ha         1 32U       0.142000
     56 H30          5.6570     1.2830     1.7360 ha         1 32U       0.172500
     57 H246         3.6990    -3.3860    -1.0290 hn         1 32U       0.326700
@<TRIPOS>BOND
     1     1     2 1   
     2     1    30 1   
     3     1    31 1   
     4     2     3 1   
     5     2     5 1   
     6     2    32 1   
     7     3     4 2   
     8     3    12 1   
     9     5     6 1   
    10     5    33 1   
    11     5    34 1   
    12     6     7 ar  
    13     6     8 ar  
    14     7     9 ar  
    15     7    35 1   
    16     8    10 ar  
    17     8    36 1   
    18     9    11 ar  
    19     9    37 1   
    20    10    11 ar  
    21    10    38 1   
    22    11    39 1   
    23    12    13 1   
    24    12    18 1   
    25    13    14 1   
    26    13    16 1   
    27    13    40 1   
    28    14    15 2   
    29    14    19 1   
    30    16    17 1   
    31    16    41 1   
    32    16    42 1   
    33    17    18 1   
    34    17    43 1   
    35    17    44 1   
    36    18    45 1   
    37    18    46 1   
    38    19    20 1   
    39    19    47 1   
    40    20    21 1   
    41    20    48 1   
    42    20    49 1   
    43    21    22 ar  
    44    21    29 ar  
    45    22    23 ar  
    46    22    50 1   
    47    23    24 ar  
    48    23    51 1   
    49    24    25 1   
    50    24    28 ar  
    51    25    26 2   
    52    25    27 1   
    53    26    52 1   
    54    26    57 1   
    55    27    53 1   
    56    27    54 1   
    57    28    29 ar  
    58    28    55 1   
    59    29    56 1   
@<TRIPOS>SUBSTRUCTURE
     1 32U         1 TEMP              0 ****  ****    0 ROOT
