@<TRIPOS>MOLECULE
32U
   57    59     1     0     0
SMALL
No Charge or Current Charge


@<TRIPOS>ATOM
      1 N13         -2.5400    -2.3360    -0.3370 n8         1 32U      -0.969200
      2 C5          -2.7550    -0.8520    -0.1800 c3         1 32U       0.098500
      3 C14         -1.4480     0.0270    -0.2860 c          1 32U       0.571100
      4 O32         -0.4580    -0.3860    -0.8840 o          1 32U      -0.654100
      5 C33         -3.8350    -0.3480    -1.1760 c3         1 32U      -0.020100
      6 C6          -5.2360    -0.8750    -0.8740 ca         1 32U      -0.076300
      7 C8          -5.8240    -1.8600    -1.6920 ca         1 32U      -0.098000
      8 C12         -5.9610    -0.3650     0.2220 ca         1 32U      -0.098000
      9 C9          -7.1180    -2.3340    -1.4140 ca         1 32U      -0.107500
     10 C11         -7.2550    -0.8380     0.4990 ca         1 32U      -0.107500
     11 C10         -7.8340    -1.8230    -0.3180 ca         1 32U      -0.103000
     12 N1          -1.4250     1.3100     0.3100 n          1 32U      -0.389800
     13 C1          -0.2370     2.2040     0.2170 c5         1 32U       0.028700
     14 C7           0.9540     1.7850     1.1390 c          1 32U       0.589100
     15 O22          0.9410     0.9690     2.0530 o          1 32U      -0.587100
     16 C2          -0.8460     3.5520     0.7100 c5         1 32U      -0.081400
     17 C3          -1.8230     3.0830     1.8180 c5         1 32U      -0.094400
     18 C4          -2.5140     1.8680     1.1480 c5         1 32U       0.108000
     19 N23          2.0900     2.4710     0.7610 ns         1 32U      -0.507900
     20 C24          3.4040     2.3070     1.3900 c3         1 32U       0.138300
     21 C25          4.2310     1.2330     0.6960 ca         1 32U      -0.019300
     22 C26          5.0970     1.5720    -0.3600 ca         1 32U      -0.094500
     23 C27          5.8580     0.5820    -1.0040 ca         1 32U      -0.055000
     24 C28          5.7650    -0.7700    -0.6020 ca         1 32U      -0.272900
     25 C21          6.5710    -1.8220    -1.2820 ce         1 32U       0.526400
     26 N46          6.8270    -1.7140    -2.6210 nv         1 32U      -0.573200
     27 N47          7.0460    -2.8810    -0.5600 nv         1 32U      -0.557300
     28 C29          4.8910    -1.1050     0.4580 ca         1 32U      -0.055000
     29 C30          4.1320    -0.1110     1.0980 ca         1 32U      -0.094500
     30 H113        -2.0430    -2.4970    -1.2220 hn         1 32U       0.400500
     31 H213        -1.8590    -2.6510     0.3630 hn         1 32U       0.400500
     32 H5          -3.1450    -0.6990     0.8350 h1         1 32U       0.080700
     33 H133        -3.8620     0.7480    -1.1630 hc         1 32U       0.053700
     34 H233        -3.5330    -0.6150    -2.1960 hc         1 32U       0.053700
     35 H8          -5.2770    -2.2620    -2.5420 ha         1 32U       0.105000
     36 H12A        -5.5230     0.4000     0.8590 ha         1 32U       0.105000
     37 H9          -7.5660    -3.0960    -2.0490 ha         1 32U       0.115000
     38 H11         -7.8090    -0.4410     1.3470 ha         1 32U       0.115000
     39 H10         -8.8360    -2.1900    -0.1040 ha         1 32U       0.117000
     40 H1           0.1300     2.2820    -0.8150 h1         1 32U       0.079700
     41 H12         -0.0950     4.2610     1.0780 hc         1 32U       0.064700
     42 H22         -1.3890     4.0540    -0.1010 hc         1 32U       0.064700
     43 H13         -1.2840     2.7810     2.7230 hc         1 32U       0.069700
     44 H23         -2.5390     3.8600     2.1110 hc         1 32U       0.069700
     45 H14         -3.3590     2.1900     0.5260 h1         1 32U       0.056200
     46 H24         -2.8820     1.1570     1.9000 h1         1 32U       0.056200
     47 HN23         2.0030     3.1200    -0.0130 hn         1 32U       0.329500
     48 H124         3.9370     3.2660     1.3490 h1         1 32U       0.078200
     49 H224         3.2770     2.0510     2.4500 h1         1 32U       0.078200
     50 H26          5.1830     2.6080    -0.6820 ha         1 32U       0.154500
     51 H27          6.5300     0.8770    -1.8080 ha         1 32U       0.124000
     52 H146         7.1740    -2.5280    -3.1100 hn         1 32U       0.377000
     53 H147         7.0230    -2.8040     0.4480 hn         1 32U       0.377000
     54 H247         7.7670    -3.4600    -0.9670 hn         1 32U       0.377000
     55 H29          4.7830    -2.1380     0.7840 ha         1 32U       0.124000
     56 H30          3.4590    -0.3880     1.9070 ha         1 32U       0.154500
     57 H246         6.2840    -1.0460    -3.1510 hn         1 32U       0.377000
@<TRIPOS>BOND
     1     1     2 1   
     2     1    30 1   
     3     1    31 1   
     4     2     3 1   
     5     2     5 1   
     6     2    32 1   
     7     3     4 2   
     8     3    12 1   
     9     5     6 1   
    10     5    33 1   
    11     5    34 1   
    12     6     7 ar  
    13     6     8 ar  
    14     7     9 ar  
    15     7    35 1   
    16     8    10 ar  
    17     8    36 1   
    18     9    11 ar  
    19     9    37 1   
    20    10    11 ar  
    21    10    38 1   
    22    11    39 1   
    23    12    13 1   
    24    12    18 1   
    25    13    14 1   
    26    13    16 1   
    27    13    40 1   
    28    14    15 2   
    29    14    19 1   
    30    16    17 1   
    31    16    41 1   
    32    16    42 1   
    33    17    18 1   
    34    17    43 1   
    35    17    44 1   
    36    18    45 1   
    37    18    46 1   
    38    19    20 1   
    39    19    47 1   
    40    20    21 1   
    41    20    48 1   
    42    20    49 1   
    43    21    22 ar  
    44    21    29 ar  
    45    22    23 ar  
    46    22    50 1   
    47    23    24 ar  
    48    23    51 1   
    49    24    25 1   
    50    24    28 ar  
    51    25    26 2   
    52    25    27 1   
    53    26    52 1   
    54    26    57 1   
    55    27    53 1   
    56    27    54 1   
    57    28    29 ar  
    58    28    55 1   
    59    29    56 1   
@<TRIPOS>SUBSTRUCTURE
     1 32U         1 TEMP              0 ****  ****    0 ROOT
