@<TRIPOS>MOLECULE
32V
   37    39     1     0     0
SMALL
bcc


@<TRIPOS>ATOM
      1 C1          -2.0810     0.5410    -0.0670 cc         1 32V      -0.272700
      2 C2           0.5790     0.3970     0.3170 cc         1 32V       0.738800
      3 N1          -0.0280     1.6380     0.2670 n          1 32V      -0.419300
      4 N2          -0.0720    -0.7340     0.2150 nd         1 32V      -0.692100
      5 C3          -1.4010    -0.6510     0.0370 cd         1 32V       0.256400
      6 C4          -1.3990     1.7860     0.0280 c          1 32V       0.766100
      7 S1          -3.7700     0.3310    -0.3220 ss         1 32V       0.010200
      8 C5          -2.2910    -1.7740    -0.0880 cd         1 32V      -0.001000
      9 C6          -3.5820    -1.3670    -0.2820 cc         1 32V      -0.078100
     10 N3           1.9060     0.3500     0.5050 nu         1 32V      -0.850200
     11 C7          -1.8700    -3.1250    -0.0180 ch         1 32V      -0.088000
     12 C8          -1.5110    -4.2720     0.0430 c1         1 32V      -0.146500
     13 O1          -1.9170     2.8870    -0.0690 o          1 32V      -0.624500
     14 C9           0.7470     2.8710     0.4310 c3         1 32V       0.080000
     15 C10          2.6400    -0.9070     0.5930 c5         1 32V       0.248500
     16 C11          2.9370    -1.4930    -0.7900 c5         1 32V      -0.099400
     17 C12          4.0340    -0.6460     1.1910 c5         1 32V      -0.099400
     18 C13          1.3340     3.3770    -0.8760 c3         1 32V      -0.113100
     19 C14          5.0210    -0.5940     0.0020 c5         1 32V      -0.083900
     20 C15          4.1540    -0.7010    -1.2580 c5         1 32V      -0.083900
     21 H1          -4.4430    -2.0070    -0.4060 h4         1 32V       0.173000
     22 H2           2.4510     1.1930     0.4750 hn         1 32V       0.443800
     23 H3          -1.1960    -5.2890     0.0920 ha         1 32V       0.167500
     24 H4           0.0810     3.6180     0.8540 h1         1 32V       0.064700
     25 H5           1.5150     2.7030     1.1850 h1         1 32V       0.064700
     26 H6           2.0540    -1.5890     1.2050 h1         1 32V       0.090700
     27 H7           3.2000    -2.5490    -0.6750 hc         1 32V       0.057450
     28 H8           2.0790    -1.4400    -1.4610 hc         1 32V       0.057450
     29 H9           4.0450     0.2680     1.7880 hc         1 32V       0.057450
     30 H10          4.2900    -1.4550     1.8750 hc         1 32V       0.057450
     31 H11          2.0230     2.6630    -1.3280 hc         1 32V       0.047033
     32 H12          0.5470     3.5890    -1.5980 hc         1 32V       0.047033
     33 H13          1.8830     4.3000    -0.6950 hc         1 32V       0.047033
     34 H14          5.6330     0.3070     0.0100 hc         1 32V       0.044200
     35 H15          5.7060    -1.4420     0.0520 hc         1 32V       0.044200
     36 H16          4.6760    -1.1790    -2.0880 hc         1 32V       0.044200
     37 H17          3.8490     0.2900    -1.6040 hc         1 32V       0.044200
@<TRIPOS>BOND
     1     1     5 2   
     2     1     6 1   
     3     1     7 1   
     4     2     3 1   
     5     2     4 2   
     6     2    10 1   
     7     3     6 1   
     8     3    14 1   
     9     4     5 1   
    10     5     8 1   
    11     6    13 2   
    12     7     9 1   
    13     8     9 2   
    14     8    11 1   
    15     9    21 1   
    16    10    15 1   
    17    10    22 1   
    18    11    12 3   
    19    12    23 1   
    20    14    18 1   
    21    14    24 1   
    22    14    25 1   
    23    15    16 1   
    24    15    17 1   
    25    15    26 1   
    26    16    20 1   
    27    16    27 1   
    28    16    28 1   
    29    17    19 1   
    30    17    29 1   
    31    17    30 1   
    32    18    31 1   
    33    18    32 1   
    34    18    33 1   
    35    19    20 1   
    36    19    34 1   
    37    19    35 1   
    38    20    36 1   
    39    20    37 1   
@<TRIPOS>SUBSTRUCTURE
     1 32V         1 TEMP              0 ****  ****    0 ROOT
