@<TRIPOS>MOLECULE
32V
   37    39     1     0     0
SMALL
No Charge or Current Charge


@<TRIPOS>ATOM
      1 C1          -2.1390     0.3820     0.0430 cc         1 32V      -0.417600
      2 C2           0.4780     0.4900     0.3460 cc         1 32V       0.738800
      3 N1          -0.2000     1.7020     0.3390 n          1 32V      -0.352300
      4 N2          -0.0470    -0.7190     0.2310 nd         1 32V      -0.692100
      5 C3          -1.4220    -0.7690     0.0710 cd         1 32V       0.256400
      6 C4          -1.5790     1.7040     0.1750 c          1 32V       0.623600
      7 S1          -3.8480     0.0670    -0.1720 ss         1 32V       0.300000
      8 C5          -2.2040    -1.9580    -0.0780 cd         1 32V      -0.001000
      9 C6          -3.5410    -1.6670    -0.2190 cc         1 32V      -0.205000
     10 N3           1.8380     0.5300     0.4870 nu         1 32V      -0.905400
     11 C7          -1.7060    -3.2900    -0.0860 ch         1 32V      -0.088000
     12 C8          -1.2980    -4.4340    -0.0960 c1         1 32V      -0.234000
     13 O1          -2.2610     2.7190     0.1420 o          1 32V      -0.549000
     14 C9           0.4860     3.0150     0.5160 c3         1 32V       0.080000
     15 C10          2.7320    -0.6440     0.3450 c5         1 32V       0.248500
     16 C11          3.1450    -0.6640    -1.1460 c5         1 32V      -0.099400
     17 C12          4.0680    -0.2060     0.9830 c5         1 32V      -0.099400
     18 C13          1.0960     3.5570    -0.7910 c3         1 32V      -0.113100
     19 C14          5.0390    -1.2420     0.3470 c5         1 32V      -0.083900
     20 C15          4.4600    -1.4970    -1.0880 c5         1 32V      -0.083900
     21 H1          -4.3740    -2.3450    -0.3490 h4         1 32V       0.155000
     22 H2           2.2180     1.4660     0.4940 hn         1 32V       0.499000
     23 H3          -0.9360    -5.4430    -0.1050 ha         1 32V       0.255000
     24 H4          -0.2190     3.7600     0.9080 h1         1 32V       0.064700
     25 H5           1.2690     2.9240     1.2800 h1         1 32V       0.064700
     26 H6           2.3510    -1.6050     0.7260 h1         1 32V       0.090700
     27 H7           2.3830    -1.1250    -1.7850 hc         1 32V       0.057450
     28 H8           3.3390     0.3410    -1.5420 hc         1 32V       0.057450
     29 H9           4.3580     0.8170     0.7100 hc         1 32V       0.057450
     30 H10          4.0510    -0.2640     2.0770 hc         1 32V       0.057450
     31 H11          1.8380     2.8630    -1.2040 hc         1 32V       0.047033
     32 H12          0.3140     3.7110    -1.5440 hc         1 32V       0.047033
     33 H13          1.5900     4.5200    -0.6100 hc         1 32V       0.047033
     34 H14          6.0690    -0.8700     0.3180 hc         1 32V       0.044200
     35 H15          5.0540    -2.1720     0.9270 hc         1 32V       0.044200
     36 H16          4.2590    -2.5640    -1.2380 hc         1 32V       0.044200
     37 H17          5.1610    -1.1940    -1.8740 hc         1 32V       0.044200
@<TRIPOS>BOND
     1     1     5 2   
     2     1     6 1   
     3     1     7 1   
     4     2     3 1   
     5     2     4 2   
     6     2    10 1   
     7     3     6 1   
     8     3    14 1   
     9     4     5 1   
    10     5     8 1   
    11     6    13 2   
    12     7     9 1   
    13     8     9 2   
    14     8    11 1   
    15     9    21 1   
    16    10    15 1   
    17    10    22 1   
    18    11    12 3   
    19    12    23 1   
    20    14    18 1   
    21    14    24 1   
    22    14    25 1   
    23    15    16 1   
    24    15    17 1   
    25    15    26 1   
    26    16    20 1   
    27    16    27 1   
    28    16    28 1   
    29    17    19 1   
    30    17    29 1   
    31    17    30 1   
    32    18    31 1   
    33    18    32 1   
    34    18    33 1   
    35    19    20 1   
    36    19    34 1   
    37    19    35 1   
    38    20    36 1   
    39    20    37 1   
@<TRIPOS>SUBSTRUCTURE
     1 32V         1 TEMP              0 ****  ****    0 ROOT
