@<TRIPOS>MOLECULE
32W
   51    54     1     0     0
SMALL
No Charge or Current Charge


@<TRIPOS>ATOM
      1 O1          -6.1540     1.7930    -1.1560 o          1 32W      -0.611100
      2 C3          -5.9020     1.1820    -0.1260 c          1 32W       0.617700
      3 N           -6.8800     0.9360     0.8120 ns         1 32W      -0.501900
      4 C2          -8.2980     1.2920     0.6560 c3         1 32W       0.102000
      5 C1          -9.0570     0.3600    -0.3180 c3         1 32W       0.137600
      6 O           -9.0140    -0.9830     0.2050 os         1 32W      -0.464000
      7 C           -9.6760    -1.9620    -0.6140 c3         1 32W       0.145900
      8 C4          -4.5110     0.6680     0.1850 ca         1 32W      -0.183600
      9 C22         -3.4680     0.8910    -0.7400 ca         1 32W      -0.040500
     10 C21         -2.1660     0.4280    -0.4830 ca         1 32W      -0.168000
     11 C7          -1.8740    -0.2610     0.7060 ca         1 32W       0.341000
     12 C6          -2.9090    -0.5020     1.6210 ca         1 32W      -0.168000
     13 C5          -4.2140    -0.0410     1.3740 ca         1 32W      -0.040500
     14 N1          -0.5980    -0.7520     0.9960 nu         1 32W      -0.924900
     15 C8           0.6950    -0.3870     0.6370 ca         1 32W       0.392900
     16 N3           1.6490    -1.2430     1.0440 nb         1 32W      -0.251000
     17 C15          2.9280    -0.9400     0.7380 ca         1 32W       0.088000
     18 C10          3.2270     0.2380     0.0210 ca         1 32W      -0.196000
     19 C9           2.1550     1.0700    -0.3520 ca         1 32W       0.176900
     20 N2           0.8830     0.7600    -0.0420 nb         1 32W      -0.213000
     21 C14          3.9860    -1.7800     1.1230 ca         1 32W      -0.109000
     22 C13          5.3150    -1.4540     0.8000 ca         1 32W      -0.060000
     23 C12          5.6280    -0.2730     0.0790 cp         1 32W      -0.065000
     24 C11          4.5550     0.5690    -0.3050 ca         1 32W      -0.036000
     25 C16          7.0450     0.0720    -0.2640 cp         1 32W       0.009000
     26 C20          8.1260    -0.2710     0.5830 ca         1 32W      -0.158000
     27 C19          9.4400     0.0730     0.2240 ca         1 32W       0.336400
     28 N4           9.7440     0.7290    -0.9180 nb         1 32W      -0.661000
     29 C18          8.7230     1.0620    -1.7390 ca         1 32W       0.336400
     30 C17          7.3810     0.7590    -1.4550 ca         1 32W      -0.158000
     31 H           -6.6080     0.4080     1.6300 hn         1 32W       0.325500
     32 H21C        -8.7820     1.2540     1.6400 h1         1 32W       0.061200
     33 H22C        -8.3680     2.3250     0.2910 h1         1 32W       0.061200
     34 H11C       -10.0950     0.7060    -0.4100 h1         1 32W       0.032700
     35 H12C        -8.5910     0.4070    -1.3110 h1         1 32W       0.032700
     36 HC1         -9.2170    -2.0110    -1.6100 h1         1 32W       0.030367
     37 HC2         -9.6030    -2.9560    -0.1550 h1         1 32W       0.030367
     38 HC3        -10.7400    -1.7170    -0.7320 h1         1 32W       0.030367
     39 H22         -3.6630     1.4220    -1.6710 ha         1 32W       0.125000
     40 H5          -4.9800    -0.2470     2.1180 ha         1 32W       0.125000
     41 H21         -1.3950     0.5950    -1.2270 ha         1 32W       0.132500
     42 H6          -2.7020    -1.0430     2.5410 ha         1 32W       0.132500
     43 H1          -0.6010    -1.5030     1.6850 hn         1 32W       0.511000
     44 H14          3.7760    -2.6940     1.6740 ha         1 32W       0.137000
     45 H9           2.3140     1.9960    -0.9040 h4         1 32W       0.027100
     46 H11          4.7570     1.4900    -0.8460 ha         1 32W       0.121000
     47 H13          6.1080    -2.1330     1.1020 ha         1 32W       0.121000
     48 H20          7.9550    -0.7860     1.5230 ha         1 32W       0.123500
     49 H17          6.6150     1.0460    -2.1680 ha         1 32W       0.123500
     50 H19         10.2760    -0.1840     0.8740 h4         1 32W       0.020100
     51 H18          8.9890     1.5870    -2.6560 h4         1 32W       0.020100
@<TRIPOS>BOND
     1     1     2 2   
     2     2     3 1   
     3     2     8 1   
     4     3     4 1   
     5     3    31 1   
     6     4     5 1   
     7     4    32 1   
     8     4    33 1   
     9     5     6 1   
    10     5    34 1   
    11     5    35 1   
    12     6     7 1   
    13     7    36 1   
    14     7    37 1   
    15     7    38 1   
    16     8     9 ar  
    17     8    13 ar  
    18     9    10 ar  
    19     9    39 1   
    20    10    11 ar  
    21    10    41 1   
    22    11    12 ar  
    23    11    14 1   
    24    12    13 ar  
    25    12    42 1   
    26    13    40 1   
    27    14    15 1   
    28    14    43 1   
    29    15    16 ar  
    30    15    20 ar  
    31    16    17 ar  
    32    17    18 ar  
    33    17    21 ar  
    34    18    19 ar  
    35    18    24 ar  
    36    19    20 ar  
    37    19    45 1   
    38    21    22 ar  
    39    21    44 1   
    40    22    23 ar  
    41    22    47 1   
    42    23    24 ar  
    43    23    25 1   
    44    24    46 1   
    45    25    26 ar  
    46    25    30 ar  
    47    26    27 ar  
    48    26    48 1   
    49    27    28 ar  
    50    27    50 1   
    51    28    29 ar  
    52    29    30 ar  
    53    29    51 1   
    54    30    49 1   
@<TRIPOS>SUBSTRUCTURE
     1 32W         1 TEMP              0 ****  ****    0 ROOT
