@<TRIPOS>MOLECULE
32W
   51    54     1     0     0
SMALL
abcg2


@<TRIPOS>ATOM
      1 O1          -5.8880     2.3100    -1.3800 o          1 32W      -0.611100
      2 C3          -5.7520     1.3350    -0.6510 c          1 32W       0.617700
      3 N           -6.7850     0.7550    -0.0140 ns         1 32W      -0.501900
      4 C2          -8.1480     1.2240    -0.1200 c3         1 32W       0.102000
      5 C1          -9.1230     0.0800     0.0430 c3         1 32W       0.137600
      6 O           -8.9380    -0.4960     1.3120 os         1 32W      -0.464000
      7 C           -9.7430    -1.6290     1.5190 c3         1 32W       0.145900
      8 C4          -4.4140     0.7210    -0.4200 ca         1 32W      -0.183600
      9 C22         -3.2770     1.4940    -0.6340 ca         1 32W      -0.040500
     10 C21         -2.0020     0.9930    -0.4380 ca         1 32W      -0.168000
     11 C7          -1.8310    -0.3350    -0.0320 ca         1 32W       0.341000
     12 C6          -2.9730    -1.1240     0.1620 ca         1 32W      -0.168000
     13 C5          -4.2370    -0.6050    -0.0250 ca         1 32W      -0.040500
     14 N1          -0.6150    -0.9550     0.2030 nu         1 32W      -0.924900
     15 C8           0.6750    -0.5300     0.0920 ca         1 32W       0.392900
     16 N3           1.5870    -1.4180     0.4240 nb         1 32W      -0.251000
     17 C15          2.8740    -1.0440     0.3300 ca         1 32W       0.088000
     18 C10          3.2320     0.2480    -0.1130 ca         1 32W      -0.196000
     19 C9           2.1540     1.0980    -0.4340 ca         1 32W       0.176900
     20 N2           0.9090     0.7300    -0.3390 nb         1 32W      -0.213000
     21 C14          3.9100    -1.9420     0.6770 ca         1 32W      -0.109000
     22 C13          5.2140    -1.5460     0.5830 ca         1 32W      -0.060000
     23 C12          5.5790    -0.2480     0.1350 cp         1 32W      -0.065000
     24 C11          4.5810     0.6320    -0.2100 ca         1 32W      -0.036000
     25 C16          6.9980     0.1370     0.0520 cp         1 32W       0.009000
     26 C20          7.9350    -0.3370     0.9690 ca         1 32W      -0.158000
     27 C19          9.2570     0.0610     0.8540 ca         1 32W       0.336400
     28 N4           9.7010     0.8780    -0.0940 nb         1 32W      -0.661000
     29 C18          8.8100     1.3300    -0.9700 ca         1 32W       0.336400
     30 C17          7.4670     0.9940    -0.9420 ca         1 32W      -0.158000
     31 H           -6.5980     0.0810     0.7110 hn         1 32W       0.325500
     32 H21C        -8.3540     2.0020     0.6230 h1         1 32W       0.061200
     33 H22C        -8.2980     1.6700    -1.1020 h1         1 32W       0.061200
     34 H11C       -10.1460     0.4620    -0.0750 h1         1 32W       0.032700
     35 H12C        -8.9590    -0.6620    -0.7510 h1         1 32W       0.032700
     36 HC1         -9.5360    -2.4180     0.7870 h1         1 32W       0.030367
     37 HC2         -9.5300    -2.0170     2.5140 h1         1 32W       0.030367
     38 HC3        -10.8110    -1.3890     1.4620 h1         1 32W       0.030367
     39 H22         -3.3840     2.5230    -0.9520 ha         1 32W       0.125000
     40 H5          -5.0830    -1.2660     0.1150 ha         1 32W       0.125000
     41 H21         -1.1490     1.6290    -0.6000 ha         1 32W       0.132500
     42 H6          -2.8630    -2.1610     0.4570 ha         1 32W       0.132500
     43 H1          -0.6790    -1.9130     0.5180 hn         1 32W       0.511000
     44 H14          3.6540    -2.9390     1.0100 ha         1 32W       0.137000
     45 H9           2.3470     2.1090    -0.7800 h4         1 32W       0.027100
     46 H11          4.8150     1.6380    -0.5370 ha         1 32W       0.121000
     47 H13          5.9940    -2.2520     0.8400 ha         1 32W       0.121000
     48 H20          7.6480    -0.9920     1.7810 ha         1 32W       0.123500
     49 H17          6.8060     1.3860    -1.7040 ha         1 32W       0.123500
     50 H19          9.9900    -0.2980     1.5690 h4         1 32W       0.020100
     51 H18          9.1820     1.9910    -1.7440 h4         1 32W       0.020100
@<TRIPOS>BOND
     1     1     2 2   
     2     2     3 1   
     3     2     8 1   
     4     3     4 1   
     5     3    31 1   
     6     4     5 1   
     7     4    32 1   
     8     4    33 1   
     9     5     6 1   
    10     5    34 1   
    11     5    35 1   
    12     6     7 1   
    13     7    36 1   
    14     7    37 1   
    15     7    38 1   
    16     8     9 ar  
    17     8    13 ar  
    18     9    10 ar  
    19     9    39 1   
    20    10    11 ar  
    21    10    41 1   
    22    11    12 ar  
    23    11    14 1   
    24    12    13 ar  
    25    12    42 1   
    26    13    40 1   
    27    14    15 1   
    28    14    43 1   
    29    15    16 ar  
    30    15    20 ar  
    31    16    17 ar  
    32    17    18 ar  
    33    17    21 ar  
    34    18    19 ar  
    35    18    24 ar  
    36    19    20 ar  
    37    19    45 1   
    38    21    22 ar  
    39    21    44 1   
    40    22    23 ar  
    41    22    47 1   
    42    23    24 ar  
    43    23    25 1   
    44    24    46 1   
    45    25    26 ar  
    46    25    30 ar  
    47    26    27 ar  
    48    26    48 1   
    49    27    28 ar  
    50    27    50 1   
    51    28    29 ar  
    52    29    30 ar  
    53    29    51 1   
    54    30    49 1   
@<TRIPOS>SUBSTRUCTURE
     1 32W         1 TEMP              0 ****  ****    0 ROOT
