@<TRIPOS>MOLECULE
32X
   20    21     1     0     0
SMALL
bcc


@<TRIPOS>ATOM
      1 C10          1.7290     1.7620     0.0780 c2         1 32X       0.498200
      2 C11          0.2510     1.8360     0.0710 c6         1 32X      -0.147400
      3 C12         -0.4170     0.5080     0.0400 ca         1 32X      -0.106300
      4 C02         -1.8200     0.4150     0.0690 ca         1 32X       0.143600
      5 C03         -2.4010    -0.8540     0.0650 ca         1 32X      -0.169000
      6 C04         -1.6190    -2.0000     0.0320 ca         1 32X      -0.101000
      7 C05         -0.2400    -1.9120    -0.0060 ca         1 32X      -0.105000
      8 C06          0.3560    -0.6490    -0.0010 ca         1 32X      -0.145600
      9 C07          1.8320    -0.5440    -0.0350 c          1 32X       0.697100
     10 O08          2.5410    -1.5230    -0.1160 o          1 32X      -0.491100
     11 N09          2.4500     0.7150     0.0310 ne         1 32X      -0.636100
     12 H1           2.2490     2.7160     0.1270 h4         1 32X       0.021800
     13 H2          -0.0580     2.4210     0.9470 hc         1 32X       0.076700
     14 H3          -0.0330     2.4620    -0.7860 hc         1 32X       0.076700
     15 H4          -2.2400     2.3780    -0.2910 hn         1 32X       0.392300
     16 H5          -3.5710     1.4190    -0.0360 hn         1 32X       0.392300
     17 H6          -3.4810    -0.9410     0.0870 ha         1 32X       0.132000
     18 H7          -2.1000    -2.9690     0.0300 ha         1 32X       0.136000
     19 H8           0.3690    -2.8040    -0.0370 ha         1 32X       0.157000
     20 N01         -2.5930     1.5510     0.1650 nv         1 32X      -0.822200
@<TRIPOS>BOND
     1     1     2 1   
     2     1    11 2   
     3     1    12 1   
     4     2     3 1   
     5     2    13 1   
     6     2    14 1   
     7     3     4 ar  
     8     3     8 ar  
     9     4     5 ar  
    10     4    20 1   
    11     5     6 ar  
    12     5    17 1   
    13     6     7 ar  
    14     6    18 1   
    15     7     8 ar  
    16     7    19 1   
    17     8     9 1   
    18     9    10 2   
    19     9    11 1   
    20    15    20 1   
    21    16    20 1   
@<TRIPOS>SUBSTRUCTURE
     1 32X         1 TEMP              0 ****  ****    0 ROOT
