@<TRIPOS>MOLECULE
32X
   20    21     1     0     0
SMALL
No Charge or Current Charge


@<TRIPOS>ATOM
      1 C10          1.7740     1.7980     0.1130 c2         1 32X       0.498200
      2 C11          0.2670     1.8750     0.0140 c6         1 32X      -0.147400
      3 C12         -0.4260     0.5140     0.0290 ca         1 32X      -0.106300
      4 C02         -1.8370     0.4020     0.0610 ca         1 32X       0.282000
      5 C03         -2.4370    -0.8650     0.0670 ca         1 32X      -0.151000
      6 C04         -1.6440    -2.0220     0.0380 ca         1 32X      -0.083000
      7 C05         -0.2460    -1.9140     0.0030 ca         1 32X      -0.087000
      8 C06          0.3800    -0.6450    -0.0010 ca         1 32X      -0.145600
      9 C07          1.8950    -0.5500    -0.0430 c          1 32X       0.697100
     10 O08          2.5810    -1.5510    -0.1820 o          1 32X      -0.491100
     11 N09          2.4830     0.7100     0.0890 ne         1 32X      -0.636100
     12 H1           2.2990     2.7440     0.2160 h4         1 32X       0.021800
     13 H2          -0.0970     2.4880     0.8490 hc         1 32X       0.076700
     14 H3           0.0080     2.4140    -0.9070 hc         1 32X       0.076700
     15 H4          -2.2300     2.4350    -0.0670 hn         1 32X       0.447500
     16 H5          -3.6460     1.4210    -0.0410 hn         1 32X       0.447500
     17 H6          -3.5190    -0.9570     0.0930 ha         1 32X       0.114000
     18 H7          -2.1140    -3.0040     0.0420 ha         1 32X       0.118000
     19 H8           0.3520    -2.8240    -0.0200 ha         1 32X       0.139000
     20 N01         -2.6390     1.5160     0.0820 nv         1 32X      -1.071000
@<TRIPOS>BOND
     1     1     2 1   
     2     1    11 2   
     3     1    12 1   
     4     2     3 1   
     5     2    13 1   
     6     2    14 1   
     7     3     4 ar  
     8     3     8 ar  
     9     4     5 ar  
    10     4    20 1   
    11     5     6 ar  
    12     5    17 1   
    13     6     7 ar  
    14     6    18 1   
    15     7     8 ar  
    16     7    19 1   
    17     8     9 1   
    18     9    10 2   
    19     9    11 1   
    20    15    20 1   
    21    16    20 1   
@<TRIPOS>SUBSTRUCTURE
     1 32X         1 TEMP              0 ****  ****    0 ROOT
