@<TRIPOS>MOLECULE
32Y
   19    20     1     0     0
SMALL
No Charge or Current Charge


@<TRIPOS>ATOM
      1 C10         -1.1960     1.4120    -0.0440 cc         1 32Y      -0.080200
      2 C11         -0.9550    -0.0340    -0.0310 ca         1 32Y      -0.081800
      3 C12          0.3560    -0.5740    -0.0400 ca         1 32Y       0.169000
      4 C02          0.5550    -1.9820    -0.0270 ca         1 32Y       0.306000
      5 C03         -0.5560    -2.8380    -0.0050 ca         1 32Y      -0.140000
      6 C04         -1.8570    -2.3090     0.0030 ca         1 32Y      -0.073000
      7 C05         -2.0540    -0.9200    -0.0090 ca         1 32Y       0.124100
      8 O06         -3.3420    -0.4420    -0.0000 os         1 32Y      -0.333200
      9 C07         -3.6580     0.8880    -0.0110 c          1 32Y       0.668300
     10 O08         -4.8170     1.2750    -0.0020 o          1 32Y      -0.484000
     11 C09         -2.5150     1.8180    -0.0330 cd         1 32Y      -0.310200
     12 I13          2.1180     0.7380    -0.0700 i          1 32Y      -0.305000
     13 H1          -0.4000     2.1530    -0.0610 ha         1 32Y       0.204000
     14 H2           1.9430    -3.5390     0.1200 hn         1 32Y       0.461000
     15 H3           2.6390    -1.9390     0.0660 hn         1 32Y       0.461000
     16 H4          -0.4160    -3.9160     0.0040 ha         1 32Y       0.122000
     17 H5          -2.7160    -2.9750     0.0200 ha         1 32Y       0.142000
     18 H6          -2.7930     2.8660    -0.0410 ha         1 32Y       0.216000
     19 N01          1.8200    -2.5390    -0.0360 nv         1 32Y      -1.067000
@<TRIPOS>BOND
     1     1     2 1   
     2     1    11 2   
     3     1    13 1   
     4     2     3 ar  
     5     2     7 ar  
     6     3     4 ar  
     7     3    12 1   
     8     4     5 ar  
     9     4    19 1   
    10     5     6 ar  
    11     5    16 1   
    12     6     7 ar  
    13     6    17 1   
    14     7     8 1   
    15     8     9 1   
    16     9    10 2   
    17     9    11 1   
    18    11    18 1   
    19    14    19 1   
    20    15    19 1   
@<TRIPOS>SUBSTRUCTURE
     1 32Y         1 TEMP              0 ****  ****    0 ROOT
