@<TRIPOS>MOLECULE
32Y
   19    20     1     0     0
SMALL
abcg2


@<TRIPOS>ATOM
      1 C10         -1.2430     1.3840    -0.0480 cc         1 32Y      -0.080200
      2 C11         -0.9250    -0.0190    -0.0430 ca         1 32Y      -0.081800
      3 C12          0.3710    -0.5690    -0.0700 ca         1 32Y       0.169000
      4 C02          0.5840    -1.9470    -0.0500 ca         1 32Y       0.306000
      5 C03         -0.5570    -2.7750    -0.0180 ca         1 32Y      -0.140000
      6 C04         -1.8320    -2.2670    -0.0040 ca         1 32Y      -0.073000
      7 C05         -2.0130    -0.8910    -0.0130 ca         1 32Y       0.124100
      8 O06         -3.2910    -0.4360     0.0080 os         1 32Y      -0.333200
      9 C07         -3.6230     0.8750     0.0040 c          1 32Y       0.668300
     10 O08         -4.7950     1.1590     0.0250 o          1 32Y      -0.484000
     11 C09         -2.5180     1.8080    -0.0250 cd         1 32Y      -0.310200
     12 I13          2.0480     0.7010    -0.1700 i          1 32Y      -0.305000
     13 H1          -0.4510     2.1190    -0.0680 ha         1 32Y       0.204000
     14 H2           1.8450    -3.5120     0.1030 hn         1 32Y       0.461000
     15 H3           2.5960    -2.0400     0.3020 hn         1 32Y       0.461000
     16 H4          -0.4180    -3.8490    -0.0030 ha         1 32Y       0.122000
     17 H5          -2.6860    -2.9300     0.0200 ha         1 32Y       0.142000
     18 H6          -2.7590     2.8620    -0.0270 ha         1 32Y       0.216000
     19 N01          1.8240    -2.5300    -0.1210 nv         1 32Y      -1.067000
@<TRIPOS>BOND
     1     1     2 1   
     2     1    11 2   
     3     1    13 1   
     4     2     3 ar  
     5     2     7 ar  
     6     3     4 ar  
     7     3    12 1   
     8     4     5 ar  
     9     4    19 1   
    10     5     6 ar  
    11     5    16 1   
    12     6     7 ar  
    13     6    17 1   
    14     7     8 1   
    15     8     9 1   
    16     9    10 2   
    17     9    11 1   
    18    11    18 1   
    19    14    19 1   
    20    15    19 1   
@<TRIPOS>SUBSTRUCTURE
     1 32Y         1 TEMP              0 ****  ****    0 ROOT
