@<TRIPOS>MOLECULE
32Z
   48    50     1     0     0
SMALL
abcg2


@<TRIPOS>ATOM
      1 O01         -6.9770    -0.1900     0.2760 o          1 32Z      -0.565000
      2 C02         -5.8980     0.3220     0.0020 c          1 32Z       0.573600
      3 N03         -5.7770     1.6080    -0.3650 ns         1 32Z      -0.501900
      4 C04         -4.5510     2.1770    -0.8880 c6         1 32Z       0.109000
      5 C05         -3.3630     1.6980    -0.0790 c6         1 32Z      -0.038100
      6 C06         -3.3960     0.2020     0.0500 ca         1 32Z      -0.083300
      7 C07         -2.2210    -0.5530     0.1720 ca         1 32Z       0.140100
      8 O08         -1.0700     0.1430     0.1770 os         1 32Z      -0.355100
      9 C09          0.1650    -0.5550     0.2190 c3         1 32Z       0.166600
     10 C10          1.2860     0.4600     0.1950 c3         1 32Z      -0.083400
     11 C11          2.6490    -0.2230     0.1880 c3         1 32Z      -0.076400
     12 C12          3.7810     0.7960     0.1880 c3         1 32Z       0.170800
     13 N13          5.1040     0.2000     0.2230 n3         1 32Z      -0.718600
     14 C14          6.1060     1.1780     0.6150 c6         1 32Z       0.167300
     15 C15          7.4800     0.5410     0.7690 c6         1 32Z      -0.075400
     16 C16          7.8980    -0.1530    -0.5210 c6         1 32Z      -0.075400
     17 C17          6.8090    -1.1240    -0.9570 c6         1 32Z      -0.075400
     18 C18          5.4610    -0.4230    -1.0420 c6         1 32Z       0.167300
     19 C19         -2.2910    -1.9390     0.2780 ca         1 32Z      -0.177000
     20 C20         -3.5290    -2.5730     0.2900 ca         1 32Z      -0.087000
     21 C21         -4.6960    -1.8410     0.2000 ca         1 32Z      -0.090000
     22 C22         -4.6240    -0.4550     0.0740 ca         1 32Z      -0.117600
     23 H031        -6.6340     2.1240    -0.4960 hn         1 32Z       0.318500
     24 H041        -4.4200     1.9080    -1.9420 h1         1 32Z       0.042700
     25 H042        -4.6320     3.2610    -0.8370 h1         1 32Z       0.042700
     26 H051        -2.4470     2.0340    -0.5640 hc         1 32Z       0.067200
     27 H052        -3.3800     2.1570     0.9140 hc         1 32Z       0.067200
     28 H091         0.2270    -1.1660     1.1270 h1         1 32Z       0.035700
     29 H092         0.2450    -1.2320    -0.6390 h1         1 32Z       0.035700
     30 H102         1.1870     1.0920    -0.6930 hc         1 32Z       0.054200
     31 H101         1.2030     1.1170     1.0660 hc         1 32Z       0.054200
     32 H111         2.7520    -0.8680     1.0650 hc         1 32Z       0.048700
     33 H112         2.7150    -0.8750    -0.6880 hc         1 32Z       0.048700
     34 H122         3.6650     1.4730    -0.6770 h1         1 32Z       0.029700
     35 H121         3.6740     1.4230     1.0780 h1         1 32Z       0.029700
     36 H141         6.1710     2.0030    -0.1180 h1         1 32Z       0.028700
     37 H142         5.7990     1.6270     1.5630 h1         1 32Z       0.028700
     38 H151         8.2030     1.3100     1.0510 hc         1 32Z       0.046200
     39 H152         7.4480    -0.1860     1.5860 hc         1 32Z       0.046200
     40 H161         8.0490     0.5980    -1.3040 hc         1 32Z       0.038700
     41 H162         8.8520    -0.6700    -0.3930 hc         1 32Z       0.038700
     42 H172         7.0460    -1.5660    -1.9270 hc         1 32Z       0.046200
     43 H171         6.7400    -1.9470    -0.2380 hc         1 32Z       0.046200
     44 H181         4.6940    -1.1490    -1.3160 h1         1 32Z       0.028700
     45 H182         5.4930     0.3250    -1.8560 h1         1 32Z       0.028700
     46 H191        -1.3960    -2.5410     0.3580 ha         1 32Z       0.118000
     47 H201        -3.5680    -3.6500     0.3750 ha         1 32Z       0.117000
     48 H211        -5.6570    -2.3350     0.2220 ha         1 32Z       0.140000
@<TRIPOS>BOND
     1     1     2 2   
     2     2     3 1   
     3     2    22 1   
     4     3     4 1   
     5     3    23 1   
     6     4     5 1   
     7     4    24 1   
     8     4    25 1   
     9     5     6 1   
    10     5    26 1   
    11     5    27 1   
    12     6     7 ar  
    13     6    22 ar  
    14     7     8 1   
    15     7    19 ar  
    16     8     9 1   
    17     9    10 1   
    18     9    28 1   
    19     9    29 1   
    20    10    11 1   
    21    10    30 1   
    22    10    31 1   
    23    11    12 1   
    24    11    32 1   
    25    11    33 1   
    26    12    13 1   
    27    12    34 1   
    28    12    35 1   
    29    13    14 1   
    30    13    18 1   
    31    14    15 1   
    32    14    36 1   
    33    14    37 1   
    34    15    16 1   
    35    15    38 1   
    36    15    39 1   
    37    16    17 1   
    38    16    40 1   
    39    16    41 1   
    40    17    18 1   
    41    17    42 1   
    42    17    43 1   
    43    18    44 1   
    44    18    45 1   
    45    19    20 ar  
    46    19    46 1   
    47    20    21 ar  
    48    20    47 1   
    49    21    22 ar  
    50    21    48 1   
@<TRIPOS>SUBSTRUCTURE
     1 32Z         1 TEMP              0 ****  ****    0 ROOT
