@<TRIPOS>MOLECULE
32Z
   48    50     1     0     0
SMALL
No Charge or Current Charge


@<TRIPOS>ATOM
      1 O01         -7.1470    -0.1320     0.2970 o          1 32Z      -0.565000
      2 C02         -6.0480     0.3510     0.0710 c          1 32Z       0.573600
      3 N03         -5.9260     1.6940    -0.1870 ns         1 32Z      -0.501900
      4 C04         -4.6830     2.3740    -0.5630 c6         1 32Z       0.109000
      5 C05         -3.4350     1.7000     0.0420 c6         1 32Z      -0.038100
      6 C06         -3.5080     0.1670     0.0300 ca         1 32Z      -0.083300
      7 C07         -2.3260    -0.6100     0.0430 ca         1 32Z       0.140100
      8 O08         -1.1050     0.0400     0.0330 os         1 32Z      -0.355100
      9 C09          0.1470    -0.6660     0.0500 c3         1 32Z       0.166600
     10 C10          1.2720     0.3850     0.0320 c3         1 32Z      -0.083400
     11 C11          2.6840    -0.2430     0.0470 c3         1 32Z      -0.076400
     12 C12          3.8120     0.8150     0.0270 c3         1 32Z       0.170800
     13 N13          5.1820     0.2730     0.2100 n3         1 32Z      -0.718600
     14 C14          6.1770     1.3630     0.4210 c6         1 32Z       0.167300
     15 C15          7.5860     0.8060     0.7420 c6         1 32Z      -0.075400
     16 C16          8.0670    -0.1530    -0.3700 c6         1 32Z      -0.075400
     17 C17          7.0110    -1.2550    -0.6100 c6         1 32Z      -0.075400
     18 C18          5.6160    -0.6430    -0.8880 c6         1 32Z       0.167300
     19 C19         -2.4150    -2.0190     0.0770 ca         1 32Z      -0.177000
     20 C20         -3.6700    -2.6450     0.1110 ca         1 32Z      -0.087000
     21 C21         -4.8420    -1.8750     0.1110 ca         1 32Z      -0.090000
     22 C22         -4.7750    -0.4660     0.0660 ca         1 32Z      -0.117600
     23 H031        -6.7860     2.2290    -0.1700 hn         1 32Z       0.318500
     24 H041        -4.6090     2.3500    -1.6590 h1         1 32Z       0.042700
     25 H042        -4.7340     3.4270    -0.2520 h1         1 32Z       0.042700
     26 H051        -2.5470     2.0610    -0.4940 hc         1 32Z       0.067200
     27 H052        -3.3200     2.0330     1.0820 hc         1 32Z       0.067200
     28 H091         0.2340    -1.2800     0.9560 h1         1 32Z       0.035700
     29 H092         0.2380    -1.3160    -0.8290 h1         1 32Z       0.035700
     30 H102         1.1640     1.0090    -0.8640 hc         1 32Z       0.054200
     31 H101         1.1600     1.0440     0.9020 hc         1 32Z       0.054200
     32 H111         2.7930    -0.8640     0.9450 hc         1 32Z       0.048700
     33 H112         2.7810    -0.9060    -0.8200 hc         1 32Z       0.048700
     34 H122         3.7530     1.3750    -0.9170 h1         1 32Z       0.029700
     35 H121         3.6030     1.5310     0.8350 h1         1 32Z       0.029700
     36 H141         6.2390     1.9990    -0.4750 h1         1 32Z       0.028700
     37 H142         5.8610     2.0100     1.2530 h1         1 32Z       0.028700
     38 H151         8.2970     1.6350     0.8570 hc         1 32Z       0.046200
     39 H152         7.5610     0.2770     1.7040 hc         1 32Z       0.046200
     40 H161         8.2350     0.4100    -1.2990 hc         1 32Z       0.038700
     41 H162         9.0300    -0.6030    -0.0930 hc         1 32Z       0.038700
     42 H172         7.3150    -1.8880    -1.4550 hc         1 32Z       0.046200
     43 H171         6.9540    -1.9110     0.2690 hc         1 32Z       0.046200
     44 H181         4.9050    -1.4720    -1.0090 h1         1 32Z       0.028700
     45 H182         5.6460    -0.1000    -1.8440 h1         1 32Z       0.028700
     46 H191        -1.5260    -2.6430     0.0840 ha         1 32Z       0.118000
     47 H201        -3.7360    -3.7310     0.1410 ha         1 32Z       0.117000
     48 H211        -5.8080    -2.3770     0.1410 ha         1 32Z       0.140000
@<TRIPOS>BOND
     1     1     2 2   
     2     2     3 1   
     3     2    22 1   
     4     3     4 1   
     5     3    23 1   
     6     4     5 1   
     7     4    24 1   
     8     4    25 1   
     9     5     6 1   
    10     5    26 1   
    11     5    27 1   
    12     6     7 ar  
    13     6    22 ar  
    14     7     8 1   
    15     7    19 ar  
    16     8     9 1   
    17     9    10 1   
    18     9    28 1   
    19     9    29 1   
    20    10    11 1   
    21    10    30 1   
    22    10    31 1   
    23    11    12 1   
    24    11    32 1   
    25    11    33 1   
    26    12    13 1   
    27    12    34 1   
    28    12    35 1   
    29    13    14 1   
    30    13    18 1   
    31    14    15 1   
    32    14    36 1   
    33    14    37 1   
    34    15    16 1   
    35    15    38 1   
    36    15    39 1   
    37    16    17 1   
    38    16    40 1   
    39    16    41 1   
    40    17    18 1   
    41    17    42 1   
    42    17    43 1   
    43    18    44 1   
    44    18    45 1   
    45    19    20 ar  
    46    19    46 1   
    47    20    21 ar  
    48    20    47 1   
    49    21    22 ar  
    50    21    48 1   
@<TRIPOS>SUBSTRUCTURE
     1 32Z         1 TEMP              0 ****  ****    0 ROOT
