@<TRIPOS>MOLECULE
330
   51    55     1     0     0
SMALL
No Charge or Current Charge


@<TRIPOS>ATOM
      1 C1          -0.8240    -6.8170     1.3580 ca         1 330      -0.142000
      2 C2          -1.4110    -7.4510     2.4910 cp         1 330       0.062000
      3 C3          -1.8770    -6.5800     3.5100 ca         1 330      -0.162600
      4 C4          -1.8110    -5.1940     3.4390 ca         1 330      -0.084600
      5 C5          -2.3900    -4.6300     4.6960 c          1 330       0.592600
      6 C6          -2.4780    -6.9550     4.8220 c          1 330       0.596600
      7 C7          -1.5250    -8.9340     2.5570 cp         1 330      -0.072000
      8 C8          -2.7810    -9.6000     2.5610 ca         1 330       0.137100
      9 C9          -2.8610   -10.9980     2.6520 ca         1 330      -0.124000
     10 C10         -1.6850   -11.7660     2.7100 ca         1 330      -0.088000
     11 C11         -0.4330   -11.1300     2.6790 ca         1 330      -0.120000
     12 C12         -0.3540    -9.7290     2.6030 ca         1 330      -0.083000
     13 C13         -1.2460    -4.5540     2.3150 cp         1 330      -0.035000
     14 C14         -0.7620    -5.4050     1.3070 ca         1 330       0.015800
     15 C15         -1.0180    -3.1610     1.8920 cp         1 330      -0.042000
     16 C16         -0.4020    -3.1900     0.6370 ca         1 330      -0.037200
     17 C17         -1.3060    -1.9120     2.4850 ca         1 330      -0.138000
     18 C18         -0.0520    -2.0360    -0.0760 ca         1 330      -0.109000
     19 C19         -0.9600    -0.7310     1.7910 ca         1 330       0.110100
     20 C20         -0.3390    -0.7930     0.5220 ca         1 330      -0.104000
     21 C22         -0.7670    -5.2320    -2.0430 c3         1 330      -0.148400
     22 C23         -0.1760    -5.7380    -3.3710 c3         1 330       0.160600
     23 O1          -2.5360    -3.4740     5.0550 o          1 330      -0.508000
     24 N1          -2.7370    -5.7460     5.4060 ns         1 330      -0.492500
     25 O2          -2.6710    -8.0560     5.3120 o          1 330      -0.470000
     26 O3          -1.2270     0.4890     2.3440 oh         1 330      -0.537100
     27 O5          -3.9430    -8.8670     2.4880 os         1 330      -0.356100
     28 C24         -4.3170    -8.2520     1.2430 c3         1 330       0.148900
     29 N2          -0.2570    -4.5480     0.3190 na         1 330      -0.091600
     30 O4          -1.2290    -5.9230    -4.3220 oh         1 330      -0.648000
     31 H1          -0.4450    -7.4190     0.5370 ha         1 330       0.126000
     32 H9          -3.8320   -11.4860     2.6670 ha         1 330       0.127000
     33 H10         -1.7450   -12.8510     2.7740 ha         1 330       0.116000
     34 H11          0.4780   -11.7240     2.7200 ha         1 330       0.117000
     35 H12          0.6220    -9.2480     2.5890 ha         1 330       0.115000
     36 H17         -1.7850    -1.8490     3.4530 ha         1 330       0.147000
     37 H18          0.4210    -2.0900    -1.0540 ha         1 330       0.119000
     38 H20         -0.0830     0.1270     0.0030 ha         1 330       0.130000
     39 H211         0.8320    -5.9750    -0.7750 h1         1 330       0.059700
     40 H212         1.0550    -4.3070    -1.3070 h1         1 330       0.059700
     41 H221        -1.2890    -4.2820    -2.2120 hc         1 330       0.061200
     42 H222        -1.5120    -5.9510    -1.6800 hc         1 330       0.061200
     43 H231         0.3480    -6.6870    -3.1960 h1         1 330       0.042200
     44 H232         0.5580    -5.0120    -3.7460 h1         1 330       0.042200
     45 HN1         -3.1490    -5.6800     6.3240 hn         1 330       0.346500
     46 HO3         -1.6540     0.3540     3.2170 ho         1 330       0.469000
     47 H241        -4.4190    -9.0090     0.4550 h1         1 330       0.035700
     48 H242        -3.5680    -7.5180     0.9210 h1         1 330       0.035700
     49 H243        -5.2780    -7.7340     1.3490 h1         1 330       0.035700
     50 HO4         -1.6310    -5.0410    -4.4810 ho         1 330       0.441000
     51 C21          0.3080    -5.0280    -0.9550 c3         1 330       0.084600
@<TRIPOS>BOND
     1     1     2 ar  
     2     1    14 ar  
     3     1    31 1   
     4     2     3 ar  
     5     2     7 1   
     6     3     4 ar  
     7     3     6 1   
     8     4     5 1   
     9     4    13 ar  
    10     5    23 2   
    11     5    24 1   
    12     6    24 1   
    13     6    25 2   
    14     7     8 ar  
    15     7    12 ar  
    16     8     9 ar  
    17     8    27 1   
    18     9    10 ar  
    19     9    32 1   
    20    10    11 ar  
    21    10    33 1   
    22    11    12 ar  
    23    11    34 1   
    24    12    35 1   
    25    13    14 ar  
    26    13    15 1   
    27    14    29 1   
    28    15    16 ar  
    29    15    17 ar  
    30    16    18 ar  
    31    16    29 1   
    32    17    19 ar  
    33    17    36 1   
    34    18    20 ar  
    35    18    37 1   
    36    19    20 ar  
    37    19    26 1   
    38    20    38 1   
    39    21    22 1   
    40    21    41 1   
    41    21    42 1   
    42    21    51 1   
    43    22    30 1   
    44    22    43 1   
    45    22    44 1   
    46    24    45 1   
    47    26    46 1   
    48    27    28 1   
    49    28    47 1   
    50    28    48 1   
    51    28    49 1   
    52    29    51 1   
    53    30    50 1   
    54    39    51 1   
    55    40    51 1   
@<TRIPOS>SUBSTRUCTURE
     1 330         1 TEMP              0 ****  ****    0 ROOT
