@<TRIPOS>MOLECULE
330
   51    55     1     0     0
SMALL
abcg2


@<TRIPOS>ATOM
      1 C1          -0.8240    -6.7810     1.3930 ca         1 330      -0.142000
      2 C2          -1.4130    -7.3940     2.4930 cp         1 330       0.062000
      3 C3          -1.9090    -6.5690     3.5050 ca         1 330      -0.162600
      4 C4          -1.8480    -5.1840     3.4340 ca         1 330      -0.084600
      5 C5          -2.4580    -4.6330     4.6710 c          1 330       0.592600
      6 C6          -2.5050    -6.9320     4.8110 c          1 330       0.596600
      7 C7          -1.4960    -8.8680     2.5420 cp         1 330      -0.072000
      8 C8          -2.7330    -9.5160     2.6080 ca         1 330       0.137100
      9 C9          -2.7990   -10.9020     2.6230 ca         1 330      -0.124000
     10 C10         -1.6330   -11.6550     2.5810 ca         1 330      -0.088000
     11 C11         -0.4000   -11.0240     2.5080 ca         1 330      -0.120000
     12 C12         -0.3370    -9.6380     2.4860 ca         1 330      -0.083000
     13 C13         -1.2780    -4.5470     2.3460 cp         1 330      -0.035000
     14 C14         -0.7540    -5.3910     1.3290 ca         1 330       0.015800
     15 C15         -1.0430    -3.1940     1.9160 cp         1 330      -0.042000
     16 C16         -0.3960    -3.2930     0.6710 ca         1 330      -0.037200
     17 C17         -1.3190    -1.9390     2.4630 ca         1 330      -0.138000
     18 C18         -0.0310    -2.1580    -0.0440 ca         1 330      -0.109000
     19 C19         -0.9500    -0.8090     1.7530 ca         1 330       0.110100
     20 C20         -0.3120    -0.9230     0.5070 ca         1 330      -0.104000
     21 C22         -0.7590    -5.1670    -2.0020 c3         1 330      -0.148400
     22 C23         -0.1880    -5.6900    -3.3120 c3         1 330       0.160600
     23 O1          -2.6180    -3.4790     4.9880 o          1 330      -0.508000
     24 N1          -2.8220    -5.7260     5.4200 ns         1 330      -0.492500
     25 O2          -2.6780    -8.0160     5.3060 o          1 330      -0.470000
     26 O3          -1.1800     0.4440     2.2070 oh         1 330      -0.537100
     27 O5          -3.8800    -8.7860     2.6620 os         1 330      -0.356100
     28 C24         -4.3910    -8.4050     1.3930 c3         1 330       0.148900
     29 N2          -0.2150    -4.6220     0.3430 na         1 330      -0.091600
     30 O4          -1.1520    -5.7670    -4.3370 oh         1 330      -0.648000
     31 H1          -0.4400    -7.3930     0.5870 ha         1 330       0.126000
     32 H9          -3.7650   -11.3880     2.6750 ha         1 330       0.127000
     33 H10         -1.6920   -12.7350     2.6000 ha         1 330       0.116000
     34 H11          0.5110   -11.6070     2.4740 ha         1 330       0.117000
     35 H12          0.6250    -9.1420     2.4380 ha         1 330       0.115000
     36 H17         -1.8160    -1.8550     3.4200 ha         1 330       0.147000
     37 H18          0.4590    -2.2200    -1.0070 ha         1 330       0.119000
     38 H20         -0.0420    -0.0230    -0.0290 ha         1 330       0.130000
     39 H211         0.7540    -6.0820    -0.7500 h1         1 330       0.059700
     40 H212         1.1290    -4.4480    -1.2170 h1         1 330       0.059700
     41 H221        -1.1780    -4.1670    -2.1570 hc         1 330       0.061200
     42 H222        -1.5790    -5.8120    -1.6740 hc         1 330       0.061200
     43 H231         0.1920    -6.7040    -3.1680 h1         1 330       0.042200
     44 H232         0.6680    -5.0710    -3.6110 h1         1 330       0.042200
     45 HN1         -3.2520    -5.6600     6.3330 hn         1 330       0.346500
     46 HO3         -1.6230     0.4140     3.0620 ho         1 330       0.469000
     47 H241        -4.6510    -9.2770     0.7860 h1         1 330       0.035700
     48 H242        -3.6790    -7.7920     0.8340 h1         1 330       0.035700
     49 H243        -5.2920    -7.8210     1.5710 h1         1 330       0.035700
     50 HO4         -1.4560    -4.8740    -4.5300 ho         1 330       0.441000
     51 C21          0.3070    -5.1010    -0.9160 c3         1 330       0.084600
@<TRIPOS>BOND
     1     1     2 ar  
     2     1    14 ar  
     3     1    31 1   
     4     2     3 ar  
     5     2     7 1   
     6     3     4 ar  
     7     3     6 1   
     8     4     5 1   
     9     4    13 ar  
    10     5    23 2   
    11     5    24 1   
    12     6    24 1   
    13     6    25 2   
    14     7     8 ar  
    15     7    12 ar  
    16     8     9 ar  
    17     8    27 1   
    18     9    10 ar  
    19     9    32 1   
    20    10    11 ar  
    21    10    33 1   
    22    11    12 ar  
    23    11    34 1   
    24    12    35 1   
    25    13    14 ar  
    26    13    15 1   
    27    14    29 1   
    28    15    16 ar  
    29    15    17 ar  
    30    16    18 ar  
    31    16    29 1   
    32    17    19 ar  
    33    17    36 1   
    34    18    20 ar  
    35    18    37 1   
    36    19    20 ar  
    37    19    26 1   
    38    20    38 1   
    39    21    22 1   
    40    21    41 1   
    41    21    42 1   
    42    21    51 1   
    43    22    30 1   
    44    22    43 1   
    45    22    44 1   
    46    24    45 1   
    47    26    46 1   
    48    27    28 1   
    49    28    47 1   
    50    28    48 1   
    51    28    49 1   
    52    29    51 1   
    53    30    50 1   
    54    39    51 1   
    55    40    51 1   
@<TRIPOS>SUBSTRUCTURE
     1 330         1 TEMP              0 ****  ****    0 ROOT
