@<TRIPOS>MOLECULE
331
   70    71     1     0     0
SMALL
No Charge or Current Charge


@<TRIPOS>ATOM
      1 C1          -2.1010    -0.1830    -4.4610 ca         1 331      -0.060000
      2 N2          -1.1400     0.0790    -3.4410 ns         1 331      -0.174000
      3 C3          -1.7310     0.0790    -5.7980 ca         1 331       0.148000
      4 C4          -3.4000    -0.6800    -4.2000 ca         1 331      -0.055000
      5 C5          -1.1340    -0.1430    -2.0690 c          1 331       0.660100
      6 C6          -2.6240    -0.1520    -6.8540 ca         1 331      -0.184000
      7 F7          -0.4970     0.5580    -6.0760 f          1 331      -0.182000
      8 C8          -4.2950    -0.9100    -5.2610 ca         1 331      -0.151000
      9 N9           0.0340     0.2800    -1.3900 n          1 331      -0.423800
     10 O10         -2.0590    -0.6760    -1.4700 o          1 331      -0.619100
     11 C11         -3.9050    -0.6480    -6.5820 ca         1 331       0.175000
     12 C12          0.1910     0.0330     0.0640 c3         1 331       0.108000
     13 C13          1.1410     0.9960    -2.0730 c3         1 331       0.103000
     14 F14         -4.7690    -0.8710    -7.5960 f          1 331      -0.179000
     15 C15         -0.2430     1.2300     0.9330 c3         1 331      -0.033100
     16 C16          2.2120     0.0390    -2.6320 c3         1 331      -0.109400
     17 C17         -0.0460     0.9560     2.4180 ca         1 331      -0.147300
     18 C18          3.3590     0.7790    -3.3530 c3         1 331      -0.071400
     19 C19         -1.0820     0.3830     3.1780 ca         1 331      -0.096000
     20 C20          1.1760     1.2670     3.0400 ca         1 331      -0.096000
     21 C21          4.4320    -0.1770    -3.9180 c3         1 331      -0.075400
     22 C22         -0.8990     0.1220     4.5480 ca         1 331      -0.157000
     23 C23          1.3580     1.0060     4.4080 ca         1 331      -0.157000
     24 C24          5.5790     0.5620    -4.6410 c3         1 331      -0.074400
     25 C25          0.3310     0.4290     5.1740 ca         1 331       0.190100
     26 C26          6.6520    -0.3940    -5.2070 c3         1 331      -0.075400
     27 O27          0.6020     0.2020     6.5160 os         1 331      -0.364100
     28 C28          7.7970     0.3430    -5.9280 c3         1 331      -0.088100
     29 C29         -0.2210    -0.5760     7.4410 c3         1 331       0.054000
     30 C30         -1.6590     0.0360     7.7000 c          1 331       0.710000
     31 C31          0.5770    -0.5620     8.7820 c3         1 331      -0.045400
     32 C32         -0.2690    -2.0440     6.9130 c3         1 331      -0.097100
     33 O33         -2.5270    -0.6970     8.1590 o          1 331      -0.716500
     34 O34         -1.8950     1.1920     7.3670 o          1 331      -0.716500
     35 C35          0.7790     0.8310     9.4240 c3         1 331      -0.075100
     36 H36         -0.2910     0.5030    -3.7890 hn         1 331       0.157000
     37 H37         -3.7370    -0.8870    -3.1890 ha         1 331       0.147000
     38 H38         -2.3250     0.0520    -7.8780 ha         1 331       0.144000
     39 H39         -5.2930    -1.2920    -5.0590 ha         1 331       0.137000
     40 H40         -0.3820    -0.8560     0.3590 h1         1 331       0.061200
     41 H41          1.2460    -0.1880     0.2730 h1         1 331       0.061200
     42 H42          1.6210     1.6700    -1.3520 h1         1 331       0.048200
     43 H43          0.7470     1.6310    -2.8770 h1         1 331       0.048200
     44 H44          0.3250     2.1190     0.6360 hc         1 331       0.043200
     45 H45         -1.2960     1.4560     0.7260 hc         1 331       0.043200
     46 H46          1.7400    -0.6620    -3.3310 hc         1 331       0.051200
     47 H47          2.6260    -0.5580    -1.8090 hc         1 331       0.051200
     48 H48          3.8330     1.4790    -2.6520 hc         1 331       0.037200
     49 H49          2.9430     1.3780    -4.1720 hc         1 331       0.037200
     50 H50         -2.0320     0.1400     2.7090 ha         1 331       0.095500
     51 H51          1.9870     1.7090     2.4640 ha         1 331       0.095500
     52 H52          3.9580    -0.8770    -4.6170 hc         1 331       0.040700
     53 H53          4.8490    -0.7760    -3.0980 hc         1 331       0.040700
     54 H54         -1.7250    -0.3060     5.1020 ha         1 331       0.137500
     55 H55          2.3060     1.2480     4.8830 ha         1 331       0.137500
     56 H56          6.0540     1.2620    -3.9420 hc         1 331       0.036700
     57 H57          5.1620     1.1610    -5.4600 hc         1 331       0.036700
     58 H58          6.1820    -1.0950    -5.9080 hc         1 331       0.037200
     59 H59          7.0730    -0.9930    -4.3900 hc         1 331       0.037200
     60 H60          8.5320    -0.3750    -6.3120 hc         1 331       0.030033
     61 H61          7.4120     0.9250    -6.7740 hc         1 331       0.030033
     62 H62          8.3110     1.0270    -5.2420 hc         1 331       0.030033
     63 H63          1.5650    -1.0120     8.6180 hc         1 331       0.027200
     64 H64          0.0660    -1.2030     9.5100 hc         1 331       0.027200
     65 H65          0.7310    -2.3870     6.6230 hc         1 331       0.029033
     66 H66         -0.6410    -2.7220     7.6900 hc         1 331       0.029033
     67 H67         -0.9310    -2.1520     6.0480 hc         1 331       0.029033
     68 H69          1.3770     0.7410    10.3380 hc         1 331       0.027367
     69 H70          1.3050     1.5080     8.7410 hc         1 331       0.027367
     70 H71         -0.1820     1.2850     9.6940 hc         1 331       0.027367
@<TRIPOS>BOND
     1     1     2 1   
     2     1     3 ar  
     3     1     4 ar  
     4     2     5 1   
     5     2    36 1   
     6     3     6 ar  
     7     3     7 1   
     8     4     8 ar  
     9     4    37 1   
    10     5     9 1   
    11     5    10 2   
    12     6    11 ar  
    13     6    38 1   
    14     8    11 ar  
    15     8    39 1   
    16     9    12 1   
    17     9    13 1   
    18    11    14 1   
    19    12    15 1   
    20    12    40 1   
    21    12    41 1   
    22    13    16 1   
    23    13    42 1   
    24    13    43 1   
    25    15    17 1   
    26    15    44 1   
    27    15    45 1   
    28    16    18 1   
    29    16    46 1   
    30    16    47 1   
    31    17    19 ar  
    32    17    20 ar  
    33    18    21 1   
    34    18    48 1   
    35    18    49 1   
    36    19    22 ar  
    37    19    50 1   
    38    20    23 ar  
    39    20    51 1   
    40    21    24 1   
    41    21    52 1   
    42    21    53 1   
    43    22    25 ar  
    44    22    54 1   
    45    23    25 ar  
    46    23    55 1   
    47    24    26 1   
    48    24    56 1   
    49    24    57 1   
    50    25    27 1   
    51    26    28 1   
    52    26    58 1   
    53    26    59 1   
    54    27    29 1   
    55    28    60 1   
    56    28    61 1   
    57    28    62 1   
    58    29    30 1   
    59    29    31 1   
    60    29    32 1   
    61    30    33 1   
    62    30    34 1   
    63    31    35 1   
    64    31    63 1   
    65    31    64 1   
    66    32    65 1   
    67    32    66 1   
    68    32    67 1   
    69    35    68 1   
    70    35    69 1   
    71    35    70 1   
@<TRIPOS>SUBSTRUCTURE
     1 331         1 TEMP              0 ****  ****    0 ROOT
