@<TRIPOS>MOLECULE
331
   70    71     1     0     0
SMALL
bcc


@<TRIPOS>ATOM
      1 C1          -2.1390     0.1230    -4.3560 ca         1 331       0.032600
      2 N2          -1.1430     0.5780    -3.4860 ns         1 331      -0.500100
      3 C3          -1.7740    -0.5680    -5.5070 ca         1 331       0.112900
      4 C4          -3.4970     0.3510    -4.1520 ca         1 331      -0.073000
      5 C5          -1.1610     0.3220    -2.1320 c          1 331       0.794100
      6 C6          -2.6880    -1.0160    -6.4390 ca         1 331      -0.202000
      7 F7          -0.4710    -0.7960    -5.7250 f          1 331      -0.146900
      8 C8          -4.4460    -0.1060    -5.0530 ca         1 331      -0.169000
      9 N9          -0.0540     0.6930    -1.4440 n          1 331      -0.490800
     10 O10         -2.1310    -0.1970    -1.5970 o          1 331      -0.619100
     11 C11         -4.0240    -0.7790    -6.1820 ca         1 331       0.139900
     12 C12         -0.0080     0.4370    -0.0150 c3         1 331       0.108000
     13 C13          1.1460     1.2490    -2.0490 c3         1 331       0.103000
     14 F14         -4.9320    -1.2130    -7.0660 f          1 331      -0.143900
     15 C15         -0.6050     1.5800     0.8090 c3         1 331      -0.033100
     16 C16          2.0850     0.1790    -2.5990 c3         1 331      -0.109400
     17 C17         -0.4570     1.3270     2.2820 ca         1 331      -0.147300
     18 C18          3.3990     0.7530    -3.1100 c3         1 331      -0.071400
     19 C19         -1.2680     0.3990     2.9330 ca         1 331      -0.114000
     20 C20          0.5170     1.9720     3.0370 ca         1 331      -0.114000
     21 C21          4.3190    -0.3180    -3.6840 c3         1 331      -0.075400
     22 C22         -1.1220     0.1180     4.2830 ca         1 331      -0.175000
     23 C23          0.6810     1.6950     4.3870 ca         1 331      -0.175000
     24 C24          5.6650     0.2210    -4.1470 c3         1 331      -0.074400
     25 C25         -0.1370     0.7680     5.0280 ca         1 331       0.190100
     26 C26          6.5640    -0.8550    -4.7450 c3         1 331      -0.075400
     27 O27          0.0570     0.5900     6.3530 os         1 331      -0.340900
     28 C28          7.9180    -0.3200    -5.1910 c3         1 331      -0.088100
     29 C29          0.2470    -0.7160     6.9240 c3         1 331       0.030800
     30 C30         -1.1000    -1.4030     7.2770 c          1 331       0.920600
     31 C31          1.0150    -0.4510     8.2250 c3         1 331      -0.045400
     32 C32          1.0960    -1.5970     6.0130 c3         1 331      -0.097100
     33 O33         -0.9960    -2.5740     7.6940 o          1 331      -0.821800
     34 O34         -2.1470    -0.7440     7.1560 o          1 331      -0.821800
     35 C35          0.2850     0.4170     9.2420 c3         1 331      -0.075100
     36 H36         -0.2900     0.8860    -3.9200 hn         1 331       0.323500
     37 H37         -3.8200     0.9000    -3.2800 ha         1 331       0.165000
     38 H38         -2.3640    -1.5420    -7.3270 ha         1 331       0.162000
     39 H39         -5.4980     0.0720    -4.8790 ha         1 331       0.155000
     40 H40         -0.5210    -0.4960     0.2170 h1         1 331       0.061200
     41 H41          1.0380     0.2920     0.2630 h1         1 331       0.061200
     42 H42          1.6590     1.8250    -1.2760 h1         1 331       0.048200
     43 H43          0.8940     1.9840    -2.8170 h1         1 331       0.048200
     44 H44         -0.1090     2.5160     0.5370 hc         1 331       0.043200
     45 H45         -1.6590     1.6920     0.5440 hc         1 331       0.043200
     46 H46          1.5900    -0.3770    -3.4020 hc         1 331       0.051200
     47 H47          2.2870    -0.5500    -1.8080 hc         1 331       0.051200
     48 H48          3.9090     1.2730    -2.2920 hc         1 331       0.037200
     49 H49          3.2010     1.5110    -3.8750 hc         1 331       0.037200
     50 H50         -2.0450    -0.1120     2.3740 ha         1 331       0.113500
     51 H51          1.1680     2.7000     2.5650 ha         1 331       0.113500
     52 H52          3.8170    -0.8110    -4.5230 hc         1 331       0.040700
     53 H53          4.4800    -1.0960    -2.9300 hc         1 331       0.040700
     54 H54         -1.7900    -0.5850     4.7590 ha         1 331       0.155500
     55 H55          1.4500     2.2030     4.9560 ha         1 331       0.155500
     56 H56          6.1780     0.6940    -3.3020 hc         1 331       0.036700
     57 H57          5.5080     1.0130    -4.8880 hc         1 331       0.036700
     58 H58          6.0550    -1.3160    -5.5970 hc         1 331       0.037200
     59 H59          6.7080    -1.6540    -4.0110 hc         1 331       0.037200
     60 H60          8.5390    -1.1080    -5.6190 hc         1 331       0.030033
     61 H61          7.8030     0.4580    -5.9480 hc         1 331       0.030033
     62 H62          8.4670     0.1150    -4.3540 hc         1 331       0.030033
     63 H63          1.9740     0.0110     7.9690 hc         1 331       0.027200
     64 H64          1.2510    -1.4170     8.6750 hc         1 331       0.027200
     65 H65          2.0340    -1.1000     5.7570 hc         1 331       0.029033
     66 H66          1.3370    -2.5250     6.5270 hc         1 331       0.029033
     67 H67          0.5890    -1.8600     5.0840 hc         1 331       0.029033
     68 H69          0.9040     0.5660    10.1270 hc         1 331       0.027367
     69 H70          0.0470     1.4010     8.8380 hc         1 331       0.027367
     70 H71         -0.6470    -0.0430     9.5710 hc         1 331       0.027367
@<TRIPOS>BOND
     1     1     2 1   
     2     1     3 ar  
     3     1     4 ar  
     4     2     5 1   
     5     2    36 1   
     6     3     6 ar  
     7     3     7 1   
     8     4     8 ar  
     9     4    37 1   
    10     5     9 1   
    11     5    10 2   
    12     6    11 ar  
    13     6    38 1   
    14     8    11 ar  
    15     8    39 1   
    16     9    12 1   
    17     9    13 1   
    18    11    14 1   
    19    12    15 1   
    20    12    40 1   
    21    12    41 1   
    22    13    16 1   
    23    13    42 1   
    24    13    43 1   
    25    15    17 1   
    26    15    44 1   
    27    15    45 1   
    28    16    18 1   
    29    16    46 1   
    30    16    47 1   
    31    17    19 ar  
    32    17    20 ar  
    33    18    21 1   
    34    18    48 1   
    35    18    49 1   
    36    19    22 ar  
    37    19    50 1   
    38    20    23 ar  
    39    20    51 1   
    40    21    24 1   
    41    21    52 1   
    42    21    53 1   
    43    22    25 ar  
    44    22    54 1   
    45    23    25 ar  
    46    23    55 1   
    47    24    26 1   
    48    24    56 1   
    49    24    57 1   
    50    25    27 1   
    51    26    28 1   
    52    26    58 1   
    53    26    59 1   
    54    27    29 1   
    55    28    60 1   
    56    28    61 1   
    57    28    62 1   
    58    29    30 1   
    59    29    31 1   
    60    29    32 1   
    61    30    33 1   
    62    30    34 1   
    63    31    35 1   
    64    31    63 1   
    65    31    64 1   
    66    32    65 1   
    67    32    66 1   
    68    32    67 1   
    69    35    68 1   
    70    35    69 1   
    71    35    70 1   
@<TRIPOS>SUBSTRUCTURE
     1 331         1 TEMP              0 ****  ****    0 ROOT
