@<TRIPOS>MOLECULE
333
   42    46     1     0     0
SMALL
No Charge or Current Charge


@<TRIPOS>ATOM
      1 C36         -1.3200    -1.8350    -0.9320 ca         1 333      -0.090000
      2 C35         -2.3320    -2.7580    -0.6440 ca         1 333       0.061100
      3 O39         -2.8430    -3.6740    -1.5060 os         1 333      -0.343100
      4 C38         -3.7560    -4.4450    -0.6460 c5         1 333       0.368600
      5 O37         -3.8960    -3.7600     0.6490 os         1 333      -0.339100
      6 C34         -2.9320    -2.8060     0.5830 ca         1 333       0.055100
      7 C33         -2.5700    -1.9310     1.6160 ca         1 333      -0.092000
      8 C32         -1.5400    -0.9980     1.3630 ca         1 333      -0.104000
      9 C31         -0.9070    -0.9590     0.0990 ca         1 333       0.105100
     10 O28          0.1230    -0.0650    -0.1080 os         1 333      -0.353400
     11 C23          1.3660    -0.4690    -0.5440 ca         1 333       0.385300
     12 N22          1.6840    -1.7740    -0.5690 nb         1 333      -0.319000
     13 C24          2.2920     0.4970    -0.9510 ca         1 333      -0.269000
     14 C25          3.5460     0.0510    -1.3950 ca         1 333       0.153900
     15 N26          3.8510    -1.2610    -1.4390 nb         1 333      -0.199000
     16 C21          2.9010    -2.1280    -1.0300 ca         1 333       0.382300
     17 O17          3.1980    -3.4730    -1.0950 os         1 333      -0.337400
     18 C14          2.2040    -4.4270    -1.0670 ca         1 333       0.112100
     19 C15          2.1510    -5.3460    -0.0080 ca         1 333      -0.087500
     20 C16          1.0880    -6.2640     0.0730 ca         1 333      -0.107000
     21 C13          1.2120    -4.4450    -2.0630 ca         1 333      -0.087500
     22 C12          0.1480    -5.3600    -1.9830 ca         1 333      -0.107000
     23 C11          0.0710    -6.2710    -0.9070 ca         1 333       0.005800
     24 N3          -1.0050    -7.1580    -0.8040 na         1 333      -0.074300
     25 C4          -1.5990    -7.5400     0.3740 cc         1 333      -0.217000
     26 C5          -2.6230    -8.3630    -0.0280 cd         1 333       0.222900
     27 NFE         -2.6620    -8.4770    -1.4110 nd         1 333      -0.672000
     28 C2          -1.6620    -7.7300    -1.8690 cc         1 333       0.397400
     29 H36         -0.8560    -1.8100    -1.9140 ha         1 333       0.144000
     30 H381        -3.3270    -5.4390    -0.4760 h2         1 333       0.074200
     31 H382        -4.7360    -4.5360    -1.1290 h2         1 333       0.074200
     32 H33         -3.0640    -1.9770     2.5840 ha         1 333       0.138000
     33 H32         -1.2230    -0.3140     2.1470 ha         1 333       0.134000
     34 H24          2.0450     1.5540    -0.9260 ha         1 333       0.154000
     35 H25          4.3140     0.7480    -1.7260 h4         1 333       0.034100
     36 H15          2.9190    -5.3300     0.7610 ha         1 333       0.134000
     37 H16          1.0560    -6.9650     0.9040 ha         1 333       0.132000
     38 H13          1.2520    -3.7320    -2.8830 ha         1 333       0.134000
     39 H12         -0.6260    -5.3350    -2.7460 ha         1 333       0.132000
     40 H4          -1.2830    -7.2140     1.3560 h4         1 333       0.164000
     41 H5          -3.3400    -8.8760     0.6010 h4         1 333       0.041100
     42 H2          -1.3770    -7.5770    -2.9030 h5         1 333       0.059100
@<TRIPOS>BOND
     1     1     2 ar  
     2     1     9 ar  
     3     1    29 1   
     4     2     3 1   
     5     2     6 ar  
     6     3     4 1   
     7     4     5 1   
     8     4    30 1   
     9     4    31 1   
    10     5     6 1   
    11     6     7 ar  
    12     7     8 ar  
    13     7    32 1   
    14     8     9 ar  
    15     8    33 1   
    16     9    10 1   
    17    10    11 1   
    18    11    12 ar  
    19    11    13 ar  
    20    12    16 ar  
    21    13    14 ar  
    22    13    34 1   
    23    14    15 ar  
    24    14    35 1   
    25    15    16 ar  
    26    16    17 1   
    27    17    18 1   
    28    18    19 ar  
    29    18    21 ar  
    30    19    20 ar  
    31    19    36 1   
    32    20    23 ar  
    33    20    37 1   
    34    21    22 ar  
    35    21    38 1   
    36    22    23 ar  
    37    22    39 1   
    38    23    24 1   
    39    24    25 1   
    40    24    28 1   
    41    25    26 2   
    42    25    40 1   
    43    26    27 1   
    44    26    41 1   
    45    27    28 2   
    46    28    42 1   
@<TRIPOS>SUBSTRUCTURE
     1 333         1 TEMP              0 ****  ****    0 ROOT
