@<TRIPOS>MOLECULE
333
   42    46     1     0     0
SMALL
bcc


@<TRIPOS>ATOM
      1 C36         -1.3330    -1.9770    -1.0850 ca         1 333      -0.108000
      2 C35         -2.2310    -2.9620    -0.7640 ca         1 333       0.061100
      3 O39         -2.8390    -3.8460    -1.5880 os         1 333      -0.319900
      4 C38         -3.8200    -4.5060    -0.7990 c5         1 333       0.322200
      5 O37         -3.5040    -4.2390     0.5600 os         1 333      -0.315900
      6 C34         -2.6320    -3.2010     0.5430 ca         1 333       0.055100
      7 C33         -2.1530    -2.4600     1.5920 ca         1 333      -0.110000
      8 C32         -1.2230    -1.4550     1.2910 ca         1 333      -0.122000
      9 C31         -0.8350    -1.2320    -0.0130 ca         1 333       0.105100
     10 O28          0.0620    -0.2020    -0.2590 os         1 333      -0.353400
     11 C23          1.3090    -0.5270    -0.6070 ca         1 333       0.713600
     12 N22          1.6230    -1.7970    -0.7030 nb         1 333      -0.845000
     13 C24          2.2350     0.4860    -0.8550 ca         1 333      -0.417600
     14 C25          3.4950     0.0490    -1.2060 ca         1 333       0.482200
     15 N26          3.8270    -1.2380    -1.3290 nb         1 333      -0.725000
     16 C21          2.8520    -2.0830    -1.0770 ca         1 333       0.908300
     17 O17          3.1640    -3.3810    -1.2220 os         1 333      -0.337400
     18 C14          2.1240    -4.2840    -1.1070 ca         1 333       0.112100
     19 C15          1.9960    -5.0220     0.0540 ca         1 333      -0.105500
     20 C16          0.9460    -5.9200     0.1770 ca         1 333      -0.125000
     21 C13          1.2260    -4.4340    -2.1510 ca         1 333      -0.105500
     22 C12          0.1620    -5.3070    -2.0150 ca         1 333      -0.125000
     23 C11          0.0190    -6.0460    -0.8480 ca         1 333       0.005800
     24 N3          -1.0760    -6.9230    -0.7030 na         1 333      -0.125000
     25 C4          -1.7920    -7.1570     0.4440 cc         1 333      -0.249600
     26 C5          -2.7520    -8.0590     0.0960 cd         1 333       0.288200
     27 NFE         -2.6420    -8.3850    -1.2280 nd         1 333      -0.672000
     28 C2          -1.6330    -7.6890    -1.6770 cc         1 333       0.397400
     29 H36         -1.0180    -1.7970    -2.1040 ha         1 333       0.162000
     30 H381        -3.7840    -5.5800    -0.9820 h2         1 333       0.074200
     31 H382        -4.8140    -4.1080    -1.0340 h2         1 333       0.074200
     32 H33         -2.4640    -2.6420     2.6110 ha         1 333       0.156000
     33 H32         -0.8110    -0.8490     2.0870 ha         1 333       0.152000
     34 H24          1.9900     1.5340    -0.7760 ha         1 333       0.172000
     35 H25          4.2810     0.7670    -1.4060 h4         1 333       0.034100
     36 H15          2.7060    -4.9020     0.8600 ha         1 333       0.152000
     37 H16          0.8570    -6.5140     1.0770 ha         1 333       0.150000
     38 H13          1.3310    -3.8480    -3.0550 ha         1 333       0.152000
     39 H12         -0.5690    -5.3820    -2.8080 ha         1 333       0.150000
     40 H4          -1.5760    -6.6560     1.3720 h4         1 333       0.182000
     41 H5          -3.5170    -8.4850     0.7280 h4         1 333       0.041100
     42 H2          -1.2440    -7.7130    -2.6830 h5         1 333       0.059100
@<TRIPOS>BOND
     1     1     2 ar  
     2     1     9 ar  
     3     1    29 1   
     4     2     3 1   
     5     2     6 ar  
     6     3     4 1   
     7     4     5 1   
     8     4    30 1   
     9     4    31 1   
    10     5     6 1   
    11     6     7 ar  
    12     7     8 ar  
    13     7    32 1   
    14     8     9 ar  
    15     8    33 1   
    16     9    10 1   
    17    10    11 1   
    18    11    12 ar  
    19    11    13 ar  
    20    12    16 ar  
    21    13    14 ar  
    22    13    34 1   
    23    14    15 ar  
    24    14    35 1   
    25    15    16 ar  
    26    16    17 1   
    27    17    18 1   
    28    18    19 ar  
    29    18    21 ar  
    30    19    20 ar  
    31    19    36 1   
    32    20    23 ar  
    33    20    37 1   
    34    21    22 ar  
    35    21    38 1   
    36    22    23 ar  
    37    22    39 1   
    38    23    24 1   
    39    24    25 1   
    40    24    28 1   
    41    25    26 2   
    42    25    40 1   
    43    26    27 1   
    44    26    41 1   
    45    27    28 2   
    46    28    42 1   
@<TRIPOS>SUBSTRUCTURE
     1 333         1 TEMP              0 ****  ****    0 ROOT
