@<TRIPOS>MOLECULE
334
   34    36     1     0     0
SMALL
bcc


@<TRIPOS>ATOM
      1 H1          -4.9140    -0.2220    -0.0710 ca         1 334      -0.221000
      2 H2          -4.5540    -1.5670     0.1310 ca         1 334      -0.121000
      3 H3          -3.2310    -1.9390     0.2740 ca         1 334      -0.114000
      4 H4          -2.2800    -0.9280     0.2220 ca         1 334       0.012000
      5 H5          -2.6230     0.4290     0.0270 ca         1 334      -0.046000
      6 H6          -3.9540     0.7870    -0.1290 ca         1 334      -0.053000
      7 H7          -6.3290     0.1260    -0.2240 c2         1 334       0.354000
      8 H1          -7.2370    -0.5300     0.4620 n8         1 334      -0.335500
      9 H2          -6.6730     1.0910    -1.0450 n8         1 334      -0.335500
     10 H3          -0.9290    -0.9240     0.3360 na         1 334      -0.202000
     11 H4          -1.5000     1.2060     0.0330 n2         1 334      -0.221000
     12 H8          -0.5010     0.3660     0.2180 cc         1 334       0.176000
     13 H9           0.9040     0.7090     0.2970 cd         1 334      -0.297000
     14 H10          1.2750     2.0550     0.1960 cd         1 334       0.011000
     15 H11          2.5890     2.4710     0.2610 cc         1 334      -0.223000
     16 HV           2.9780     3.9170     0.1300 c3         1 334      -0.139000
     17 H12          3.5680     1.4820     0.4390 cc         1 334      -0.010000
     18 H13          3.2220     0.1560     0.5410 cd         1 334      -0.302000
     19 H14          1.8770    -0.3330     0.4800 c          1 334       0.313000
     20 H6           1.5950    -1.5600     0.5810 o          1 334      -0.477000
     21 HR5          4.5770    -1.1470     0.7870 br         1 334      -0.002000
     22 HC2         -5.3160    -2.3360     0.1430 ha         1 334       0.119000
     23 HC3         -2.9570    -2.9760     0.4130 ha         1 334       0.154000
     24 HC6         -4.2280     1.8270    -0.2570 ha         1 334       0.139000
     25 HH11        -6.9660    -1.1670     1.1940 ha         1 334       0.266000
     26 HH12        -8.2250    -0.3660     0.3410 ha         1 334       0.266000
     27 HH21        -7.6250     1.4160    -1.1250 ha         1 334       0.266000
     28 HH22        -5.9990     1.4960    -1.6730 ha         1 334       0.266000
     29 HN3         -0.2530    -1.6740     0.4760 ha         1 334       0.325000
     30 H1           0.4900     2.7910     0.0660 ha         1 334       0.124000
     31 H32          3.4190     4.1330    -0.8460 ha         1 334       0.061667
     32 H33          2.1120     4.5690     0.2430 ha         1 334       0.061667
     33 H34          3.7120     4.2100     0.8820 ha         1 334       0.061667
     34 HC4          4.6100     1.7750     0.4970 ha         1 334       0.122000
@<TRIPOS>BOND
     1     1     2 ar  
     2     1     6 ar  
     3     1     7 1   
     4     2     3 ar  
     5     2    22 1   
     6     3     4 ar  
     7     3    23 1   
     8     4     5 ar  
     9     4    10 2   
    10     5     6 ar  
    11     5    11 2   
    12     6    24 1   
    13     7     8 2   
    14     7     9 1   
    15     8    25 1   
    16     8    26 1   
    17     9    27 1   
    18     9    28 1   
    19    10    12 1   
    20    10    29 1   
    21    11    12 1   
    22    12    13 2   
    23    13    14 1   
    24    13    19 1   
    25    14    15 2   
    26    14    30 1   
    27    15    16 1   
    28    15    17 1   
    29    16    31 1   
    30    16    32 1   
    31    16    33 1   
    32    17    18 2   
    33    17    34 1   
    34    18    19 1   
    35    18    21 1   
    36    19    20 2   
@<TRIPOS>SUBSTRUCTURE
     1 334         1 TEMP              0 ****  ****    0 ROOT
