@<TRIPOS>MOLECULE
334
   34    36     1     0     0
SMALL
abcg2


@<TRIPOS>ATOM
      1 C1          -4.9140    -0.2220    -0.0710 ca         1 334      -0.304900
      2 C2          -4.5540    -1.5670     0.1310 ca         1 334      -0.103000
      3 C3          -3.2310    -1.9390     0.2740 ca         1 334      -0.096000
      4 C4          -2.2800    -0.9280     0.2220 ca         1 334       0.012000
      5 C5          -2.6230     0.4290     0.0270 ca         1 334      -0.046000
      6 C6          -3.9540     0.7870    -0.1290 ca         1 334      -0.035000
      7 C7          -6.3290     0.1260    -0.2240 ce         1 334       0.531400
      8 N1          -7.2370    -0.5300     0.4620 nv         1 334      -0.590200
      9 N2          -6.6730     1.0910    -1.0450 nv         1 334      -0.574300
     10 N3          -0.9290    -0.9240     0.3360 na         1 334      -0.274900
     11 N4          -1.5000     1.2060     0.0330 nc         1 334      -0.361600
     12 C8          -0.5010     0.3660     0.2180 cc         1 334       0.289500
     13 C9           0.9040     0.7090     0.2970 cd         1 334      -0.316200
     14 C10          1.2750     2.0550     0.1960 cd         1 334      -0.039000
     15 C11          2.5890     2.4710     0.2610 cc         1 334      -0.227200
     16 CV           2.9780     3.9170     0.1300 c3         1 334      -0.016900
     17 C12          3.5680     1.4820     0.4390 cc         1 334      -0.060000
     18 C13          3.2220     0.1560     0.5410 cd         1 334      -0.195500
     19 C14          1.8770    -0.3330     0.4800 c          1 334       0.590500
     20 O6           1.5950    -1.5600     0.5810 o          1 334      -0.716100
     21 BR5          4.5770    -1.1470     0.7870 br         1 334      -0.127700
     22 HC2         -5.3160    -2.3360     0.1430 ha         1 334       0.101000
     23 HC3         -2.9570    -2.9760     0.4130 ha         1 334       0.136000
     24 HC6         -4.2280     1.8270    -0.2570 ha         1 334       0.121000
     25 HH11        -6.9660    -1.1670     1.1940 hn         1 334       0.366000
     26 HH12        -8.2250    -0.3660     0.3410 hn         1 334       0.366000
     27 HH21        -7.6250     1.4160    -1.1250 hn         1 334       0.366000
     28 HH22        -5.9990     1.4960    -1.6730 hn         1 334       0.366000
     29 HN3         -0.2530    -1.6740     0.4760 hn         1 334       0.425000
     30 H1           0.4900     2.7910     0.0660 ha         1 334       0.174000
     31 H32          3.4190     4.1330    -0.8460 hc         1 334       0.022367
     32 H33          2.1120     4.5690     0.2430 hc         1 334       0.022367
     33 H34          3.7120     4.2100     0.8820 hc         1 334       0.022367
     34 HC4          4.6100     1.7750     0.4970 ha         1 334       0.172000
@<TRIPOS>BOND
     1     1     2 ar  
     2     1     6 ar  
     3     1     7 1   
     4     2     3 ar  
     5     2    22 1   
     6     3     4 ar  
     7     3    23 1   
     8     4     5 ar  
     9     4    10 2   
    10     5     6 ar  
    11     5    11 2   
    12     6    24 1   
    13     7     8 2   
    14     7     9 1   
    15     8    25 1   
    16     8    26 1   
    17     9    27 1   
    18     9    28 1   
    19    10    12 1   
    20    10    29 1   
    21    11    12 1   
    22    12    13 2   
    23    13    14 1   
    24    13    19 1   
    25    14    15 2   
    26    14    30 1   
    27    15    16 1   
    28    15    17 1   
    29    16    31 1   
    30    16    32 1   
    31    16    33 1   
    32    17    18 2   
    33    17    34 1   
    34    18    19 1   
    35    18    21 1   
    36    19    20 2   
@<TRIPOS>SUBSTRUCTURE
     1 334         1 TEMP              0 ****  ****    0 ROOT
