@<TRIPOS>MOLECULE
334
   34    36     1     0     0
SMALL
No Charge or Current Charge


@<TRIPOS>ATOM
      1 C1          -4.9650    -0.2140    -0.0710 ca         1 334      -0.304900
      2 C2          -4.5540    -1.5660     0.1090 ca         1 334      -0.103000
      3 C3          -3.1910    -1.9000     0.2530 ca         1 334      -0.096000
      4 C4          -2.2560    -0.8620     0.2140 ca         1 334       0.012000
      5 C5          -2.6340     0.4610     0.0400 ca         1 334      -0.046000
      6 C6          -3.9820     0.8130    -0.1050 ca         1 334      -0.035000
      7 C7          -6.4070     0.1250    -0.2200 ce         1 334       0.531400
      8 N1          -7.3460    -0.6290     0.4240 nv         1 334      -0.590200
      9 N2          -6.7760     1.1850    -0.9990 nv         1 334      -0.574300
     10 N3          -0.8820    -0.9160     0.3290 na         1 334      -0.274900
     11 N4          -1.5110     1.2740     0.0440 nc         1 334      -0.361600
     12 C8          -0.4720     0.3940     0.2220 cc         1 334       0.289500
     13 C9           0.8940     0.6690     0.3020 cd         1 334      -0.316200
     14 C10          1.2390     2.0670     0.1790 cd         1 334      -0.039000
     15 C11          2.5680     2.4510     0.2450 cc         1 334      -0.227200
     16 CV           3.0000     3.8910     0.1250 c3         1 334      -0.016900
     17 C12          3.6020     1.4690     0.4340 cc         1 334      -0.060000
     18 C13          3.3240     0.1260     0.5560 cd         1 334      -0.195500
     19 C14          1.9320    -0.3830     0.4980 c          1 334       0.590500
     20 O6           1.6860    -1.5830     0.6080 o          1 334      -0.716100
     21 Br5          4.7270    -1.1260     0.8030 br         1 334      -0.127700
     22 HC2         -5.2890    -2.3690     0.1260 ha         1 334       0.101000
     23 HC3         -2.8780    -2.9330     0.3870 ha         1 334       0.136000
     24 HC6         -4.2540     1.8590    -0.2270 ha         1 334       0.121000
     25 HH11        -7.0190    -1.2630     1.1400 hn         1 334       0.366000
     26 HH12        -8.2840    -0.2630     0.5100 hn         1 334       0.366000
     27 HH21        -7.7470     1.2650    -1.2680 hn         1 334       0.366000
     28 HH22        -6.0820     1.5730    -1.6230 hn         1 334       0.366000
     29 HN3         -0.2700    -1.7160     0.4650 hn         1 334       0.425000
     30 H1           0.4790     2.8320     0.0360 ha         1 334       0.174000
     31 H32          3.6720     4.0260    -0.7310 hc         1 334       0.022367
     32 H33          2.1430     4.5610    -0.0140 hc         1 334       0.022367
     33 H34          3.5330     4.2140     1.0280 hc         1 334       0.022367
     34 HC4          4.6350     1.8090     0.4800 ha         1 334       0.172000
@<TRIPOS>BOND
     1     1     2 ar  
     2     1     6 ar  
     3     1     7 1   
     4     2     3 ar  
     5     2    22 1   
     6     3     4 ar  
     7     3    23 1   
     8     4     5 ar  
     9     4    10 2   
    10     5     6 ar  
    11     5    11 2   
    12     6    24 1   
    13     7     8 2   
    14     7     9 1   
    15     8    25 1   
    16     8    26 1   
    17     9    27 1   
    18     9    28 1   
    19    10    12 1   
    20    10    29 1   
    21    11    12 1   
    22    12    13 2   
    23    13    14 1   
    24    13    19 1   
    25    14    15 2   
    26    14    30 1   
    27    15    16 1   
    28    15    17 1   
    29    16    31 1   
    30    16    32 1   
    31    16    33 1   
    32    17    18 2   
    33    17    34 1   
    34    18    19 1   
    35    18    21 1   
    36    19    20 2   
@<TRIPOS>SUBSTRUCTURE
     1 334         1 TEMP              0 ****  ****    0 ROOT
