@<TRIPOS>MOLECULE
335
   65    69     1     0     0
SMALL
No Charge or Current Charge


@<TRIPOS>ATOM
      1 C32          0.5030    71.8150    68.7440 c3         1 335      -0.014100
      2 C33          1.5880    72.7400    68.1740 ca         1 335      -0.141800
      3 C4A          1.2600    73.8270    67.3420 ca         1 335      -0.124000
      4 C4B          2.9460    72.4890    68.4550 ca         1 335      -0.124000
      5 C5A          2.2650    74.6650    66.8280 ca         1 335      -0.078500
      6 C5B          3.9510    73.3270    67.9440 ca         1 335      -0.078500
      7 C36          3.6230    74.4320    67.1310 ca         1 335      -0.044300
      8 C37          4.7220    75.3530    66.5790 c3         1 335      -0.051200
      9 F38          5.7560    75.4500    67.4570 f          1 335      -0.166000
     10 F39          4.2600    76.6230    66.4300 f          1 335      -0.166000
     11 P40          5.4100    74.7670    64.9070 p5         1 335       1.270500
     12 O41          4.3110    74.7210    63.8930 o          1 335      -0.904333
     13 O42          6.0070    73.4040    65.0520 o          1 335      -0.904333
     14 O43          6.4670    75.7150    64.4360 o          1 335      -0.904333
     15 C1          -0.0560    72.2130    70.1590 c3         1 335       0.159300
     16 C12         -0.9670    73.4930    70.0540 c3         1 335      -0.014100
     17 C13         -2.3930    73.2560    69.5360 ca         1 335      -0.141800
     18 C1A         -2.6770    73.2310    68.1570 ca         1 335      -0.124000
     19 C1B         -3.4530    73.0850    70.4480 ca         1 335      -0.124000
     20 C2A         -3.9880    73.0090    67.7000 ca         1 335      -0.078500
     21 C2B         -4.7640    72.8610    69.9920 ca         1 335      -0.078500
     22 C16         -5.0460    72.8120    68.6110 ca         1 335      -0.044300
     23 C17         -6.4780    72.5600    68.1130 c3         1 335      -0.051200
     24 F18         -7.1490    71.7410    68.9670 f          1 335      -0.166000
     25 F19         -6.4670    71.9010    66.9230 f          1 335      -0.166000
     26 P20         -7.4830    74.1590    67.9020 p5         1 335       1.270500
     27 O21         -6.8130    75.0520    66.9080 o          1 335      -0.904333
     28 O22         -7.5890    74.8690    69.2130 o          1 335      -0.904333
     29 O23         -8.8580    73.8300    67.4130 o          1 335      -0.904333
     30 C51          1.1810    72.4500    71.0740 ca         1 335      -0.067300
     31 C6A          1.8550    71.3430    71.6480 ca         1 335      -0.083000
     32 C6B          1.7020    73.7450    71.3240 ca         1 335      -0.083000
     33 C55          3.4690    72.8160    72.7170 ca         1 335      -0.122000
     34 C53          2.9830    71.5250    72.4650 ca         1 335      -0.119500
     35 C54          2.8310    73.9230    72.1410 ca         1 335      -0.119500
     36 N61         -0.8920    71.1030    70.7220 na         1 335       0.093600
     37 N62         -1.3770    70.0180    69.9930 nc         1 335      -0.115400
     38 N63         -2.1090    69.2560    70.8050 nd         1 335      -0.250400
     39 C7A         -2.1000    69.8670    72.0490 ca         1 335       0.014400
     40 C7B         -1.3540    71.0030    72.0110 ca         1 335      -0.072200
     41 C8A         -2.7350    69.4520    73.2280 ca         1 335      -0.037000
     42 C8B         -1.1790    71.8250    73.1380 ca         1 335      -0.080000
     43 C9A         -2.5830    70.2490    74.3830 ca         1 335      -0.159000
     44 C9B         -1.8080    71.4310    74.3380 ca         1 335      -0.116000
     45 H321         0.9280    70.8060    68.8120 hc         1 335       0.055950
     46 H322        -0.3230    71.7260    68.0300 hc         1 335       0.055950
     47 H4A          0.2250    74.0320    67.0880 ha         1 335       0.085000
     48 H4B          3.2270    71.6460    69.0800 ha         1 335       0.085000
     49 H5A          1.9820    75.4980    66.1890 ha         1 335       0.127000
     50 H5B          4.9910    73.1130    68.1820 ha         1 335       0.127000
     51 H121        -0.4770    74.2510    69.4340 hc         1 335       0.055950
     52 H122        -1.0430    73.9460    71.0490 hc         1 335       0.055950
     53 H1A         -1.8870    73.3820    67.4300 ha         1 335       0.085000
     54 H1B         -3.2650    73.1180    71.5180 ha         1 335       0.085000
     55 H2A         -4.1790    72.9940    66.6290 ha         1 335       0.127000
     56 H2B         -5.5610    72.7280    70.7190 ha         1 335       0.127000
     57 H6A          1.5120    70.3280    71.4590 ha         1 335       0.121500
     58 H6B          1.2530    74.6290    70.8800 ha         1 335       0.121500
     59 H55          4.3440    72.9560    73.3470 ha         1 335       0.089000
     60 H53          3.4830    70.6630    72.9000 ha         1 335       0.096500
     61 H54          3.2160    74.9240    72.3230 ha         1 335       0.096500
     62 H8A         -3.3300    68.5410    73.2490 ha         1 335       0.115000
     63 H8B         -0.5830    72.7330    73.1010 ha         1 335       0.127000
     64 H9A         -3.0650    69.9520    75.3110 ha         1 335       0.088000
     65 H9B         -1.6960    72.0400    75.2320 ha         1 335       0.090000
@<TRIPOS>BOND
     1     1     2 1   
     2     1    15 1   
     3     1    45 1   
     4     1    46 1   
     5     2     3 ar  
     6     2     4 ar  
     7     3     5 ar  
     8     3    47 1   
     9     4     6 ar  
    10     4    48 1   
    11     5     7 ar  
    12     5    49 1   
    13     6     7 ar  
    14     6    50 1   
    15     7     8 1   
    16     8     9 1   
    17     8    10 1   
    18     8    11 1   
    19    11    12 1   
    20    11    13 1   
    21    11    14 1   
    22    15    16 1   
    23    15    30 1   
    24    15    36 1   
    25    16    17 1   
    26    16    51 1   
    27    16    52 1   
    28    17    18 ar  
    29    17    19 ar  
    30    18    20 ar  
    31    18    53 1   
    32    19    21 ar  
    33    19    54 1   
    34    20    22 ar  
    35    20    55 1   
    36    21    22 ar  
    37    21    56 1   
    38    22    23 1   
    39    23    24 1   
    40    23    25 1   
    41    23    26 1   
    42    26    27 1   
    43    26    28 1   
    44    26    29 1   
    45    30    31 ar  
    46    30    32 ar  
    47    31    34 ar  
    48    31    57 1   
    49    32    35 ar  
    50    32    58 1   
    51    33    34 ar  
    52    33    35 ar  
    53    33    59 1   
    54    34    60 1   
    55    35    61 1   
    56    36    37 1   
    57    36    40 1   
    58    37    38 2   
    59    38    39 1   
    60    39    40 ar  
    61    39    41 ar  
    62    40    42 ar  
    63    41    43 ar  
    64    41    62 1   
    65    42    44 ar  
    66    42    63 1   
    67    43    44 ar  
    68    43    64 1   
    69    44    65 1   
@<TRIPOS>SUBSTRUCTURE
     1 335         1 TEMP              0 ****  ****    0 ROOT
