@<TRIPOS>MOLECULE
335
   65    69     1     0     0
SMALL
bcc


@<TRIPOS>ATOM
      1 C32          0.4590    71.8720    68.8600 c3         1 335      -0.014100
      2 C33          1.5290    72.7570    68.2750 ca         1 335      -0.141800
      3 C4A          1.2220    73.8630    67.4870 ca         1 335      -0.142000
      4 C4B          2.8760    72.4560    68.4600 ca         1 335      -0.142000
      5 C5A          2.2160    74.6400    66.9110 ca         1 335      -0.096500
      6 C5B          3.8750    73.2260    67.8850 ca         1 335      -0.096500
      7 C36          3.5590    74.3360    67.1070 ca         1 335      -0.044300
      8 C37          4.6250    75.1460    66.4390 c3         1 335       0.349200
      9 F38          5.7440    75.1510    67.2530 f          1 335      -0.287300
     10 F39          4.2100    76.4660    66.4210 f          1 335      -0.287300
     11 P40          5.0830    74.5920    64.6800 p5         1 335       1.112700
     12 O41          3.7410    74.6800    63.9590 o          1 335      -0.904333
     13 O42          5.6180    73.1790    64.9000 o          1 335      -0.904333
     14 O43          6.1250    75.6170    64.2380 o          1 335      -0.904333
     15 C1          -0.0550    72.3170    70.2540 c3         1 335       0.130000
     16 C12         -0.9770    73.5600    70.1700 c3         1 335      -0.014100
     17 C13         -2.3330    73.3010    69.5710 ca         1 335      -0.141800
     18 C1A         -2.5730    73.4070    68.2030 ca         1 335      -0.142000
     19 C1B         -3.4130    72.9670    70.3860 ca         1 335      -0.142000
     20 C2A         -3.8300    73.1730    67.6680 ca         1 335      -0.096500
     21 C2B         -4.6720    72.7280    69.8560 ca         1 335      -0.096500
     22 C16         -4.8970    72.8160    68.4850 ca         1 335      -0.044300
     23 C17         -6.2630    72.6150    67.9100 c3         1 335       0.349200
     24 F18         -6.9170    71.6570    68.6650 f          1 335      -0.287300
     25 F19         -6.1250    72.0290    66.6630 f          1 335      -0.287300
     26 P20         -7.3150    74.1940    67.7870 p5         1 335       1.112700
     27 O21         -6.4620    75.0850    66.8880 o          1 335      -0.904333
     28 O22         -7.4150    74.6360    69.2440 o          1 335      -0.904333
     29 O23         -8.6250    73.7080    67.1710 o          1 335      -0.904333
     30 C51          1.1490    72.5460    71.1590 ca         1 335      -0.067300
     31 C6A          1.8830    71.4490    71.6070 ca         1 335      -0.101000
     32 C6B          1.5820    73.8200    71.5050 ca         1 335      -0.101000
     33 C55          3.4370    72.8990    72.7340 ca         1 335      -0.140000
     34 C53          3.0150    71.6210    72.3880 ca         1 335      -0.137500
     35 C54          2.7170    73.9960    72.2880 ca         1 335      -0.137500
     36 N61         -0.8430    71.2170    70.8280 na         1 335       0.122900
     37 N62         -1.3660    70.2650    70.0610 nc         1 335      -0.115400
     38 N63         -2.1060    69.4920    70.7560 nd         1 335      -0.250400
     39 C7A         -2.1020    69.9430    72.0430 ca         1 335       0.014400
     40 C7B         -1.2870    71.0750    72.1060 ca         1 335      -0.072200
     41 C8A         -2.7570    69.4570    73.1800 ca         1 335      -0.055000
     42 C8B         -1.0930    71.7810    73.2980 ca         1 335      -0.098000
     43 C9A         -2.5680    70.1470    74.3540 ca         1 335      -0.177000
     44 C9B         -1.7480    71.2940    74.4070 ca         1 335      -0.134000
     45 H321         0.8620    70.8630    68.9600 hc         1 335       0.055950
     46 H322        -0.3820    71.7980    68.1690 hc         1 335       0.055950
     47 H4A          0.1910    74.1210    67.2910 ha         1 335       0.103000
     48 H4B          3.1550    71.5920    69.0520 ha         1 335       0.103000
     49 H5A          1.9280    75.4820    66.2980 ha         1 335       0.145000
     50 H5B          4.9080    72.9490    68.0500 ha         1 335       0.145000
     51 H121        -0.4580    74.3330    69.6020 hc         1 335       0.055950
     52 H122        -1.1120    73.9590    71.1780 hc         1 335       0.055950
     53 H1A         -1.7740    73.6960    67.5330 ha         1 335       0.103000
     54 H1B         -3.2780    72.9100    71.4600 ha         1 335       0.103000
     55 H2A         -3.9670    73.2760    66.6000 ha         1 335       0.145000
     56 H2B         -5.4790    72.4730    70.5290 ha         1 335       0.145000
     57 H6A          1.5760    70.4440    71.3440 ha         1 335       0.139500
     58 H6B          1.0460    74.6970    71.1690 ha         1 335       0.139500
     59 H55          4.3180    73.0360    73.3470 ha         1 335       0.107000
     60 H53          3.5690    70.7560    72.7270 ha         1 335       0.114500
     61 H54          3.0350    74.9980    72.5470 ha         1 335       0.114500
     62 H8A         -3.3850    68.5780    73.1300 ha         1 335       0.133000
     63 H8B         -0.4690    72.6610    73.3580 ha         1 335       0.145000
     64 H9A         -3.0550    69.8090    75.2590 ha         1 335       0.106000
     65 H9B         -1.6310    71.8080    75.3530 ha         1 335       0.108000
@<TRIPOS>BOND
     1     1     2 1   
     2     1    15 1   
     3     1    45 1   
     4     1    46 1   
     5     2     3 ar  
     6     2     4 ar  
     7     3     5 ar  
     8     3    47 1   
     9     4     6 ar  
    10     4    48 1   
    11     5     7 ar  
    12     5    49 1   
    13     6     7 ar  
    14     6    50 1   
    15     7     8 1   
    16     8     9 1   
    17     8    10 1   
    18     8    11 1   
    19    11    12 1   
    20    11    13 1   
    21    11    14 1   
    22    15    16 1   
    23    15    30 1   
    24    15    36 1   
    25    16    17 1   
    26    16    51 1   
    27    16    52 1   
    28    17    18 ar  
    29    17    19 ar  
    30    18    20 ar  
    31    18    53 1   
    32    19    21 ar  
    33    19    54 1   
    34    20    22 ar  
    35    20    55 1   
    36    21    22 ar  
    37    21    56 1   
    38    22    23 1   
    39    23    24 1   
    40    23    25 1   
    41    23    26 1   
    42    26    27 1   
    43    26    28 1   
    44    26    29 1   
    45    30    31 ar  
    46    30    32 ar  
    47    31    34 ar  
    48    31    57 1   
    49    32    35 ar  
    50    32    58 1   
    51    33    34 ar  
    52    33    35 ar  
    53    33    59 1   
    54    34    60 1   
    55    35    61 1   
    56    36    37 1   
    57    36    40 1   
    58    37    38 2   
    59    38    39 1   
    60    39    40 ar  
    61    39    41 ar  
    62    40    42 ar  
    63    41    43 ar  
    64    41    62 1   
    65    42    44 ar  
    66    42    63 1   
    67    43    44 ar  
    68    43    64 1   
    69    44    65 1   
@<TRIPOS>SUBSTRUCTURE
     1 335         1 TEMP              0 ****  ****    0 ROOT
