@<TRIPOS>MOLECULE
336
   67    71     1     0     0
SMALL
abcg2


@<TRIPOS>ATOM
      1 C1          -1.8880    -1.5790     0.3280 c6         1 336       0.092000
      2 C4          -1.0560     0.2470    -1.1880 c6         1 336      -0.038700
      3 C6          -1.0040     1.1520     0.0440 c6         1 336      -0.098400
      4 C9          -2.0270     0.7050     1.0810 c6         1 336       0.092000
      5 N12         -1.7900    -0.6770     1.4590 n          1 336      -0.405800
      6 C13         -0.8870    -1.2090    -0.7650 c6         1 336      -0.098400
      7 C17          3.6930     0.4190    -2.0720 ca         1 336      -0.056000
      8 C19         -1.5710    -1.0060    -6.0460 ca         1 336       0.120000
      9 C20         -0.5790    -1.6470    -5.3310 ca         1 336      -0.095000
     10 C22          1.0200    -1.8310    -3.4610 c3         1 336      -0.037100
     11 C25          2.3240    -1.0570    -3.4810 c3         1 336      -0.024100
     12 C28         -1.6040     0.7280    -4.4220 ca         1 336      -0.008900
     13 C29          3.8850     1.4780    -1.2130 ca         1 336      -0.080900
     14 C30          2.7770     2.2080    -0.8110 ca         1 336       0.375900
     15 N32          1.5690     1.8960    -1.2270 nb         1 336      -0.696000
     16 C33         -0.1470     0.7490    -2.3570 c3         1 336      -0.071700
     17 C35         -2.0990     0.1900    -5.6010 ca         1 336      -0.082000
     18 BR38        -2.4260     2.3570    -3.8950 br         1 336      -0.091100
     19 C39          1.3410     0.8570    -2.0370 ca         1 336       0.392300
     20 C40         -0.5900     0.1250    -3.6650 ca         1 336      -0.032300
     21 C41          2.4100     0.0850    -2.5100 ca         1 336      -0.109300
     22 C42         -0.0920    -1.0950    -4.1510 ca         1 336      -0.060300
     23 C43          0.0330     0.5660     5.8850 c6         1 336      -0.106900
     24 C46          0.4440     0.0480     7.2580 c6         1 336       0.094000
     25 C49         -0.5270    -0.5710     5.0260 c6         1 336      -0.048700
     26 C51         -1.6350    -1.3050     5.7860 c6         1 336      -0.106900
     27 N54         -0.6720    -0.5950     7.9260 n          1 336      -0.405800
     28 C55         -1.4990     0.0320     8.8140 c          1 336       0.639100
     29 N56         -1.1030     1.2540     9.2750 nt         1 336      -0.600000
     30 O57         -2.5180    -0.5010     9.2450 o          1 336      -0.641100
     31 C58         -1.1720    -1.7330     7.1760 c6         1 336       0.094000
     32 C61         -1.0120    -0.0250     3.6890 c3         1 336      -0.152400
     33 O64         -0.8870    -2.2450     2.8000 o          1 336      -0.607100
     34 C65         -1.2230    -1.0810     2.6190 c          1 336       0.606100
     35 H11         -2.9050    -1.5170    -0.0740 h1         1 336       0.057200
     36 H12         -1.7310    -2.6020     0.6590 h1         1 336       0.057200
     37 H4          -2.0780     0.3350    -1.5830 hc         1 336       0.051700
     38 H61         -1.2060     2.1870    -0.2390 hc         1 336       0.055950
     39 H62         -0.0140     1.1360     0.5040 hc         1 336       0.055950
     40 H91         -3.0390     0.7790     0.6700 h1         1 336       0.057200
     41 H92         -1.9960     1.3580     1.9480 h1         1 336       0.057200
     42 H131         0.1290    -1.3910    -0.3990 hc         1 336       0.055950
     43 H132        -1.0640    -1.8840    -1.6040 hc         1 336       0.055950
     44 H17          4.5340    -0.1680    -2.4210 ha         1 336       0.133000
     45 H20         -0.1750    -2.5850    -5.6870 ha         1 336       0.133000
     46 H221         0.7620    -2.0820    -2.4330 hc         1 336       0.059700
     47 H222         1.1770    -2.7830    -3.9700 hc         1 336       0.059700
     48 H251         2.5120    -0.6830    -4.4920 hc         1 336       0.057200
     49 H252         3.1410    -1.7480    -3.2660 hc         1 336       0.057200
     50 H30          2.8690     3.0640    -0.1510 h4         1 336       0.035100
     51 H33         -0.4060     1.8050    -2.4280 hc         1 336       0.090700
     52 H35         -2.8760     0.6870    -6.1640 ha         1 336       0.147000
     53 H432         0.8970     1.0180     5.3920 hc         1 336       0.049950
     54 H461         0.8780     0.8330     7.8750 h1         1 336       0.060700
     55 H462         1.2310    -0.7030     7.1380 h1         1 336       0.060700
     56 H49          0.2880    -1.2810     4.8480 hc         1 336       0.070700
     57 H511        -2.5080    -0.6490     5.8830 hc         1 336       0.049950
     58 H512        -1.9590    -2.1860     5.2300 hc         1 336       0.049950
     59 H561        -1.7830     1.7410     9.8340 hn         1 336       0.301000
     60 H562        -0.5050     1.8550     8.7360 hn         1 336       0.301000
     61 H581        -0.3590    -2.4610     7.0840 h1         1 336       0.060700
     62 H582        -1.9750    -2.2150     7.7270 h1         1 336       0.060700
     63 H611        -0.2860     0.7010     3.3050 hc         1 336       0.058200
     64 H612        -1.9350     0.5400     3.8510 hc         1 336       0.058200
     65 BR37         5.6030     1.9440    -0.6080 br         1 336      -0.074100
     66 CL16        -2.1640    -1.7040    -7.5130 cl         1 336      -0.187000
     67 H431        -0.7170     1.3570     6.0020 hc         1 336       0.049950
@<TRIPOS>BOND
     1     1     5 1   
     2     1     6 1   
     3     1    35 1   
     4     1    36 1   
     5     2     3 1   
     6     2     6 1   
     7     2    16 1   
     8     2    37 1   
     9     3     4 1   
    10     3    38 1   
    11     3    39 1   
    12     4     5 1   
    13     4    40 1   
    14     4    41 1   
    15     5    34 1   
    16     6    42 1   
    17     6    43 1   
    18     7    13 ar  
    19     7    21 ar  
    20     7    44 1   
    21     8     9 ar  
    22     8    17 ar  
    23     8    66 1   
    24     9    22 ar  
    25     9    45 1   
    26    10    11 1   
    27    10    22 1   
    28    10    46 1   
    29    10    47 1   
    30    11    21 1   
    31    11    48 1   
    32    11    49 1   
    33    12    17 ar  
    34    12    18 1   
    35    12    20 ar  
    36    13    14 ar  
    37    13    65 1   
    38    14    15 ar  
    39    14    50 1   
    40    15    19 ar  
    41    16    19 1   
    42    16    20 1   
    43    16    51 1   
    44    17    52 1   
    45    19    21 ar  
    46    20    22 ar  
    47    23    24 1   
    48    23    25 1   
    49    23    53 1   
    50    23    67 1   
    51    24    27 1   
    52    24    54 1   
    53    24    55 1   
    54    25    26 1   
    55    25    32 1   
    56    25    56 1   
    57    26    31 1   
    58    26    57 1   
    59    26    58 1   
    60    27    28 1   
    61    27    31 1   
    62    28    29 1   
    63    28    30 2   
    64    29    59 1   
    65    29    60 1   
    66    31    61 1   
    67    31    62 1   
    68    32    34 1   
    69    32    63 1   
    70    32    64 1   
    71    33    34 2   
@<TRIPOS>SUBSTRUCTURE
     1 336         1 TEMP              0 ****  ****    0 ROOT
