@<TRIPOS>MOLECULE
336
   67    71     1     0     0
SMALL
No Charge or Current Charge


@<TRIPOS>ATOM
      1 C1          -1.9390    -1.4480     0.2810 c6         1 336       0.092000
      2 C4          -1.0250     0.3050    -1.3560 c6         1 336      -0.038700
      3 C6          -0.9720     1.2930    -0.1510 c6         1 336      -0.098400
      4 C9          -2.0290     0.9360     0.9170 c6         1 336       0.092000
      5 N12         -1.8280    -0.4620     1.3850 n          1 336      -0.405800
      6 C13         -0.9100    -1.1550    -0.8390 c6         1 336      -0.098400
      7 C17          3.8660     0.3620    -2.3760 ca         1 336      -0.056000
      8 C19         -1.4710    -1.2820    -6.2310 ca         1 336       0.120000
      9 C20         -0.4690    -1.8820    -5.4650 ca         1 336      -0.095000
     10 C22          1.1270    -1.9710    -3.5450 c3         1 336      -0.037100
     11 C25          2.4270    -1.1920    -3.6580 c3         1 336      -0.024100
     12 C28         -1.5470     0.5740    -4.6670 ca         1 336      -0.008900
     13 C29          4.0910     1.4820    -1.5710 ca         1 336      -0.080900
     14 C30          2.9930     2.2420    -1.1580 ca         1 336       0.375900
     15 N32          1.7250     1.9310    -1.4970 nb         1 336      -0.696000
     16 C33         -0.0600     0.6830    -2.5600 c3         1 336      -0.071700
     17 C35         -2.0100    -0.0590    -5.8320 ca         1 336      -0.082000
     18 Br38        -2.4350     2.2280    -4.2180 br         1 336      -0.091100
     19 C39          1.4660     0.8260    -2.2520 ca         1 336       0.392300
     20 C40         -0.5080    -0.0090    -3.8750 ca         1 336      -0.032300
     21 C41          2.5460     0.0150    -2.7370 ca         1 336      -0.109300
     22 C42          0.0110    -1.2650    -4.2910 ca         1 336      -0.060300
     23 C43         -0.5630     1.0010     6.1170 c6         1 336      -0.106900
     24 C46         -0.1430     0.5600     7.5390 c6         1 336       0.094000
     25 C49         -0.8580    -0.2020     5.1980 c6         1 336      -0.048700
     26 C51         -1.9840    -1.0260     5.8560 c6         1 336      -0.106900
     27 N54         -1.0160    -0.4790     8.1760 n          1 336      -0.405800
     28 C55         -0.9490    -0.7480     9.5570 c          1 336       0.639100
     29 N56         -0.2430     0.1080    10.3200 nt         1 336      -0.600000
     30 O57         -1.4970    -1.7050    10.0750 o          1 336      -0.641100
     31 C58         -1.5850    -1.5190     7.2650 c6         1 336       0.094000
     32 C61         -1.2350     0.2660     3.7580 c3         1 336      -0.152400
     33 O64         -0.8980    -1.9510     2.8630 o          1 336      -0.607100
     34 C65         -1.2910    -0.8100     2.6500 c          1 336       0.606100
     35 H11         -2.9550    -1.3950    -0.1380 h1         1 336       0.057200
     36 H12         -1.8010    -2.4740     0.6490 h1         1 336       0.057200
     37 H4          -2.0370     0.4000    -1.7770 hc         1 336       0.051700
     38 H61         -1.1310     2.3240    -0.4950 hc         1 336       0.055950
     39 H62          0.0140     1.2620     0.3280 hc         1 336       0.055950
     40 H91         -3.0350     1.0260     0.4820 h1         1 336       0.057200
     41 H92         -1.9720     1.6620     1.7370 h1         1 336       0.057200
     42 H131         0.1040    -1.3430    -0.4610 hc         1 336       0.055950
     43 H132        -1.1000    -1.8600    -1.6580 hc         1 336       0.055950
     44 H17          4.7130    -0.2260    -2.7250 ha         1 336       0.133000
     45 H20         -0.0610    -2.8340    -5.7940 ha         1 336       0.133000
     46 H221         0.9020    -2.1470    -2.4920 hc         1 336       0.059700
     47 H222         1.2920    -2.9700    -3.9690 hc         1 336       0.059700
     48 H251         2.5720    -0.8820    -4.7000 hc         1 336       0.057200
     49 H252         3.2420    -1.8950    -3.4410 hc         1 336       0.057200
     50 H30          3.1290     3.1300    -0.5420 h4         1 336       0.035100
     51 H33         -0.2990     1.7330    -2.7370 hc         1 336       0.090700
     52 H35         -2.7990     0.3980    -6.4230 ha         1 336       0.147000
     53 H432         0.2310     1.6250     5.6840 hc         1 336       0.049950
     54 H461        -0.1130     1.4620     8.1670 h1         1 336       0.060700
     55 H462         0.8810     0.1630     7.4950 h1         1 336       0.060700
     56 H49          0.0510    -0.8160     5.1160 hc         1 336       0.070700
     57 H511        -2.8950    -0.4160     5.9330 hc         1 336       0.049950
     58 H512        -2.2460    -1.8920     5.2340 hc         1 336       0.049950
     59 H561        -0.1790    -0.0590    11.3120 hn         1 336       0.301000
     60 H562         0.2110     0.9040     9.9020 hn         1 336       0.301000
     61 H581        -0.8390    -2.3200     7.1580 h1         1 336       0.060700
     62 H582        -2.4710    -1.9720     7.7340 h1         1 336       0.060700
     63 H611        -0.5430     1.0350     3.3980 hc         1 336       0.058200
     64 H612        -2.1820     0.8170     3.7480 hc         1 336       0.058200
     65 Br37         5.8700     1.9770    -1.0660 br         1 336      -0.074100
     66 Cl16        -2.0570    -2.0700    -7.6910 cl         1 336      -0.187000
     67 H431        -1.4540     1.6400     6.1860 hc         1 336       0.049950
@<TRIPOS>BOND
     1     1     5 1   
     2     1     6 1   
     3     1    35 1   
     4     1    36 1   
     5     2     3 1   
     6     2     6 1   
     7     2    16 1   
     8     2    37 1   
     9     3     4 1   
    10     3    38 1   
    11     3    39 1   
    12     4     5 1   
    13     4    40 1   
    14     4    41 1   
    15     5    34 1   
    16     6    42 1   
    17     6    43 1   
    18     7    13 ar  
    19     7    21 ar  
    20     7    44 1   
    21     8     9 ar  
    22     8    17 ar  
    23     8    66 1   
    24     9    22 ar  
    25     9    45 1   
    26    10    11 1   
    27    10    22 1   
    28    10    46 1   
    29    10    47 1   
    30    11    21 1   
    31    11    48 1   
    32    11    49 1   
    33    12    17 ar  
    34    12    18 1   
    35    12    20 ar  
    36    13    14 ar  
    37    13    65 1   
    38    14    15 ar  
    39    14    50 1   
    40    15    19 ar  
    41    16    19 1   
    42    16    20 1   
    43    16    51 1   
    44    17    52 1   
    45    19    21 ar  
    46    20    22 ar  
    47    23    24 1   
    48    23    25 1   
    49    23    53 1   
    50    23    67 1   
    51    24    27 1   
    52    24    54 1   
    53    24    55 1   
    54    25    26 1   
    55    25    32 1   
    56    25    56 1   
    57    26    31 1   
    58    26    57 1   
    59    26    58 1   
    60    27    28 1   
    61    27    31 1   
    62    28    29 1   
    63    28    30 2   
    64    29    59 1   
    65    29    60 1   
    66    31    61 1   
    67    31    62 1   
    68    32    34 1   
    69    32    63 1   
    70    32    64 1   
    71    33    34 2   
@<TRIPOS>SUBSTRUCTURE
     1 336         1 TEMP              0 ****  ****    0 ROOT
