@<TRIPOS>MOLECULE
337
   76    79     1     0     0
SMALL
No Charge or Current Charge


@<TRIPOS>ATOM
      1 N1           2.4440     0.4930     0.2150 ns         1 337      -0.142000
      2 C4           5.0970    -2.2060     0.3210 ca         1 337      -0.005300
      3 C5           4.8520     0.6150     0.4730 ca         1 337      -0.014900
      4 C6           6.1270     0.0140     0.5290 ca         1 337       0.298000
      5 C7           6.2350    -1.3840     0.4700 ca         1 337      -0.178000
      6 C8         -10.2910    -2.0210     0.4960 ca         1 337      -0.092500
      7 C10          5.2810    -3.7480     0.2440 c3         1 337      -0.002700
      8 C13          5.9470    -4.2500     1.5530 c3         1 337      -0.086433
      9 C15        -11.1070    -2.7820    -0.3590 ca         1 337      -0.113500
     10 C17        -11.7660    -0.7570    -1.5340 ca         1 337      -0.113500
     11 C20          8.1660     0.6110    -1.8960 c3         1 337      -0.379100
     12 C22         -0.6250     3.4350    -0.3070 ca         1 337      -0.117000
     13 C24         -3.0520     4.1320    -0.4920 c3         1 337      -0.056800
     14 C26          0.0660     1.1170     0.0730 ca         1 337      -0.154600
     15 C1         -10.2100    -0.6230     0.3410 ca         1 337      -0.116300
     16 C2           3.6960    -0.1760     0.3210 ca         1 337      -0.003000
     17 C3           3.8290    -1.5800     0.2380 ca         1 337      -0.146000
     18 C9           4.3800     2.6040     1.7960 c3         1 337       0.134900
     19 C11          3.9420    -4.5200     0.0670 c3         1 337      -0.086433
     20 C12          6.1910    -4.0960    -0.9650 c3         1 337      -0.086433
     21 C14          1.1290     0.0500     0.2650 c          1 337       0.624700
     22 C16        -11.8460    -2.1510    -1.3740 ca         1 337      -0.100000
     23 C18        -10.9500     0.0050    -0.6800 ca         1 337      -0.092500
     24 C23         -1.9820     3.0630    -0.2820 ca         1 337      -0.015300
     25 C25          0.3890     2.4800    -0.1320 ca         1 337      -0.068000
     26 O15          0.8210    -1.1200     0.4640 o          1 337      -0.570100
     27 N16          7.2440     0.8340     0.6550 nu         1 337      -0.883100
     28 S17          8.6630     0.7340    -0.1920 s6         1 337       1.202100
     29 O18          9.3210    -0.5070     0.2200 o          1 337      -0.526000
     30 O19          9.3130     2.0280     0.0150 o          1 337      -0.526000
     31 C47         -1.2980     0.7490     0.0990 ca         1 337      -0.047000
     32 C48         -2.3190     1.7060    -0.0730 ca         1 337      -0.021200
     33 N49         -3.6490     1.2870    -0.0320 na         1 337       0.205000
     34 C50         -4.5230     1.5820     0.9730 cc         1 337      -0.121000
     35 N51         -4.1770     0.5410    -1.0330 nc         1 337      -0.183800
     36 N52         -5.4220     0.3400    -0.6830 nd         1 337      -0.351000
     37 C53         -5.6700     0.9640     0.5410 cd         1 337       0.130500
     38 C61         -6.9450     1.0040     1.3250 c          1 337       0.541600
     39 O62         -7.0860     1.5770     2.4000 o          1 337      -0.612100
     40 N75         -7.9760     0.3220     0.7180 ns         1 337      -0.490900
     41 C76         -9.3230     0.2000     1.2630 c3         1 337       0.154300
     42 HN1          2.5400     1.4890     0.0740 hn         1 337       0.170000
     43 H7           7.2150    -1.8380     0.5460 ha         1 337       0.147000
     44 H13          5.3390    -3.9800     2.4250 hc         1 337       0.039478
     45 H13A         6.0590    -5.3420     1.5440 hc         1 337       0.039478
     46 H13B         6.9460    -3.8190     1.6930 hc         1 337       0.039478
     47 H15        -11.1670    -3.8610    -0.2350 ha         1 337       0.114500
     48 H17        -12.3360    -0.2670    -2.3210 ha         1 337       0.114500
     49 H20          7.5660     1.4960    -2.1330 h1         1 337       0.106033
     50 H20A         9.0780     0.5750    -2.5000 h1         1 337       0.106033
     51 H20B         7.5820    -0.3080    -2.0060 h1         1 337       0.106033
     52 H22         -0.3500     4.4760    -0.4650 ha         1 337       0.127000
     53 H24         -3.7910     3.8160    -1.2380 hc         1 337       0.059367
     54 H24A        -3.5850     4.3450     0.4420 hc         1 337       0.059367
     55 H24B        -2.6210     5.0760    -0.8470 hc         1 337       0.059367
     56 H3           2.9410    -2.1820     0.0970 ha         1 337       0.157000
     57 H9           3.3980     2.2530     2.1370 h1         1 337       0.043367
     58 H9A          5.1190     2.3650     2.5720 h1         1 337       0.043367
     59 H9B          4.3360     3.6950     1.6890 h1         1 337       0.043367
     60 H11          3.4370    -4.2300    -0.8630 hc         1 337       0.039478
     61 H11A         4.1170    -5.6020     0.0210 hc         1 337       0.039478
     62 H11B         3.2630    -4.3330     0.9080 hc         1 337       0.039478
     63 H12          7.1930    -3.6660    -0.8570 hc         1 337       0.039478
     64 H12A         6.3100    -5.1820    -1.0680 hc         1 337       0.039478
     65 H12B         5.7580    -3.7140    -1.8970 hc         1 337       0.039478
     66 H16        -12.4770    -2.7400    -2.0360 ha         1 337       0.114000
     67 H18        -10.8930     1.0840    -0.8120 ha         1 337       0.116000
     68 H25          1.4210     2.8220    -0.1610 ha         1 337       0.122000
     69 HN16         7.0270     1.8210     0.6350 hn         1 337       0.508000
     70 H47         -1.5770    -0.2920     0.2570 ha         1 337       0.149000
     71 H50         -4.2820     2.1620     1.8520 h4         1 337       0.191000
     72 HN75        -7.7670    -0.1210    -0.1700 hn         1 337       0.341500
     73 H76         -9.7490     1.2040     1.3920 h1         1 337       0.057200
     74 H76A        -9.2680    -0.2760     2.2510 h1         1 337       0.057200
     75 O8           4.7420     1.9930     0.5450 os         1 337      -0.373100
     76 H8          -9.7210    -2.5180     1.2780 ha         1 337       0.116000
@<TRIPOS>BOND
     1     1    16 1   
     2     1    21 1   
     3     1    42 1   
     4     2     5 ar  
     5     2     7 1   
     6     2    17 ar  
     7     3     4 ar  
     8     3    16 ar  
     9     3    75 1   
    10     4     5 ar  
    11     4    27 1   
    12     5    43 1   
    13     6     9 ar  
    14     6    15 ar  
    15     6    76 1   
    16     7     8 1   
    17     7    19 1   
    18     7    20 1   
    19     8    44 1   
    20     8    45 1   
    21     8    46 1   
    22     9    22 ar  
    23     9    47 1   
    24    10    22 ar  
    25    10    23 ar  
    26    10    48 1   
    27    11    28 1   
    28    11    49 1   
    29    11    50 1   
    30    11    51 1   
    31    12    24 ar  
    32    12    25 ar  
    33    12    52 1   
    34    13    24 1   
    35    13    53 1   
    36    13    54 1   
    37    13    55 1   
    38    14    21 1   
    39    14    25 ar  
    40    14    31 ar  
    41    15    23 ar  
    42    15    41 1   
    43    16    17 ar  
    44    17    56 1   
    45    18    57 1   
    46    18    58 1   
    47    18    59 1   
    48    18    75 1   
    49    19    60 1   
    50    19    61 1   
    51    19    62 1   
    52    20    63 1   
    53    20    64 1   
    54    20    65 1   
    55    21    26 2   
    56    22    66 1   
    57    23    67 1   
    58    24    32 ar  
    59    25    68 1   
    60    27    28 1   
    61    27    69 1   
    62    28    29 2   
    63    28    30 2   
    64    31    32 ar  
    65    31    70 1   
    66    32    33 1   
    67    33    34 1   
    68    33    35 1   
    69    34    37 2   
    70    34    71 1   
    71    35    36 2   
    72    36    37 1   
    73    37    38 1   
    74    38    39 2   
    75    38    40 1   
    76    40    41 1   
    77    40    72 1   
    78    41    73 1   
    79    41    74 1   
@<TRIPOS>SUBSTRUCTURE
     1 337         1 TEMP              0 ****  ****    0 ROOT
