@<TRIPOS>MOLECULE
337
   76    79     1     0     0
SMALL
bcc


@<TRIPOS>ATOM
      1 N1           2.3330     0.7190     0.3860 ns         1 337      -0.468100
      2 C4           4.9570    -1.9060     0.6840 ca         1 337      -0.005300
      3 C5           4.6360     0.7330    -0.1620 ca         1 337      -0.014900
      4 C6           5.8780     0.1080    -0.2920 ca         1 337       0.159600
      5 C7           6.0340    -1.1980     0.1530 ca         1 337      -0.196000
      6 C8          -9.6290    -1.8330    -1.5480 ca         1 337      -0.110500
      7 C10          5.1820    -3.3420     1.1520 c3         1 337      -0.002700
      8 C13          6.2460    -3.3480     2.2590 c3         1 337      -0.086433
      9 C15        -10.5000    -1.7270    -2.6220 ca         1 337      -0.131500
     10 C17        -11.7980    -0.1110    -1.4070 ca         1 337      -0.131500
     11 C20          7.3480    -0.7650    -3.0330 c3         1 337      -0.268300
     12 C22         -0.7100     3.6640     0.9170 ca         1 337      -0.135000
     13 C24         -3.1480     4.2510     0.7920 c3         1 337      -0.056800
     14 C26          0.0880     1.3920     0.8820 ca         1 337      -0.154600
     15 C1          -9.8320    -1.0800    -0.3940 ca         1 337      -0.116300
     16 C2           3.5480     0.0300     0.3540 ca         1 337       0.089600
     17 C3           3.7150    -1.2910     0.7690 ca         1 337      -0.164000
     18 C9           4.7100     2.9890     0.4720 c3         1 337       0.111700
     19 C11          3.9100    -3.9780     1.7110 c3         1 337      -0.086433
     20 C12          5.6690    -4.1890    -0.0310 c3         1 337      -0.086433
     21 C14          1.1650     0.3630     0.9780 c          1 337       0.691700
     22 C16        -11.5870    -0.8640    -2.5540 ca         1 337      -0.118000
     23 C18        -10.9220    -0.2170    -0.3340 ca         1 337      -0.110500
     24 C23         -2.0340     3.2500     0.8020 ca         1 337      -0.015300
     25 C25          0.3380     2.7590     0.9500 ca         1 337      -0.086000
     26 O15          0.9690    -0.6970     1.5450 o          1 337      -0.570100
     27 N16          6.9190     0.8600    -0.8640 nu         1 337      -0.689500
     28 S17          8.1470     0.2000    -1.7740 s6         1 337       1.232900
     29 O18          8.9190    -0.6930    -0.9280 o          1 337      -0.596800
     30 O19          8.8070     1.3390    -2.3880 o          1 337      -0.596800
     31 C47         -1.2260     0.9540     0.7720 ca         1 337      -0.065000
     32 C48         -2.2570     1.8740     0.7150 ca         1 337      -0.021200
     33 N49         -3.5800     1.3800     0.5820 na         1 337       0.154300
     34 C50         -4.2250     0.5130     1.3790 cc         1 337      -0.153600
     35 N51         -4.3400     1.7340    -0.4550 nc         1 337      -0.183800
     36 N52         -5.4590     1.1270    -0.3410 nd         1 337      -0.351000
     37 C53         -5.4430     0.3580     0.7710 cd         1 337       0.195800
     38 C61         -6.5680    -0.4860     1.2170 c          1 337       0.608600
     39 O62         -6.4700    -1.1820     2.2190 o          1 337      -0.612100
     40 N75         -7.6630    -0.4250     0.4510 ns         1 337      -0.557900
     41 C76         -8.8660    -1.1770     0.7550 c3         1 337       0.154300
     42 HN1          2.3150     1.5620    -0.1700 hn         1 337       0.336500
     43 H7           7.0040    -1.6690     0.0960 ha         1 337       0.165000
     44 H13          5.9190    -2.7640     3.1210 hc         1 337       0.039478
     45 H13A         6.4340    -4.3690     2.5980 hc         1 337       0.039478
     46 H13B         7.1970    -2.9380     1.9180 hc         1 337       0.039478
     47 H15        -10.3330    -2.3210    -3.5120 ha         1 337       0.132500
     48 H17        -12.6440     0.5620    -1.3470 ha         1 337       0.132500
     49 H20          6.7520    -0.1060    -3.6590 h1         1 337       0.106033
     50 H20A         8.1270    -1.2460    -3.6220 h1         1 337       0.106033
     51 H20B         6.7150    -1.5230    -2.5750 h1         1 337       0.106033
     52 H22         -0.4970     4.7210     1.0040 ha         1 337       0.145000
     53 H24         -3.5240     4.4160    -0.2180 hc         1 337       0.059367
     54 H24A        -3.9910     3.9290     1.4040 hc         1 337       0.059367
     55 H24B        -2.8000     5.2070     1.1780 hc         1 337       0.059367
     56 H3           2.8690    -1.8270     1.1610 ha         1 337       0.175000
     57 H9           4.0300     2.8390     1.3140 h1         1 337       0.043367
     58 H9A          5.7360     2.9430     0.8430 h1         1 337       0.043367
     59 H9B          4.5320     3.9710     0.0390 h1         1 337       0.043367
     60 H11          3.1110    -4.0270     0.9690 hc         1 337       0.039478
     61 H11A         4.1220    -5.0000     2.0280 hc         1 337       0.039478
     62 H11B         3.5340    -3.4370     2.5820 hc         1 337       0.039478
     63 H12          6.6150    -3.8260    -0.4350 hc         1 337       0.039478
     64 H12A         5.8250    -5.2230     0.2850 hc         1 337       0.039478
     65 H12B         4.9390    -4.1930    -0.8420 hc         1 337       0.039478
     66 H16        -12.2680    -0.7810    -3.3910 ha         1 337       0.132000
     67 H18        -11.0900     0.3740     0.5580 ha         1 337       0.134000
     68 H25          1.3450     3.1370     1.0710 ha         1 337       0.140000
     69 HN16         6.6270     1.7550    -1.2420 hn         1 337       0.452800
     70 H47         -1.4440    -0.1040     0.7090 ha         1 337       0.167000
     71 H50         -3.7960     0.1060     2.2780 h4         1 337       0.209000
     72 HN75        -7.6750     0.2090    -0.3330 hn         1 337       0.341500
     73 H76         -9.3290    -0.7990     1.6700 h1         1 337       0.057200
     74 H76A        -8.6010    -2.2200     0.9400 h1         1 337       0.057200
     75 O8           4.4840     2.0280    -0.5650 os         1 337      -0.349900
     76 H8          -8.7850    -2.5110    -1.6040 ha         1 337       0.134000
@<TRIPOS>BOND
     1     1    16 1   
     2     1    21 1   
     3     1    42 1   
     4     2     5 ar  
     5     2     7 1   
     6     2    17 ar  
     7     3     4 ar  
     8     3    16 ar  
     9     3    75 1   
    10     4     5 ar  
    11     4    27 1   
    12     5    43 1   
    13     6     9 ar  
    14     6    15 ar  
    15     6    76 1   
    16     7     8 1   
    17     7    19 1   
    18     7    20 1   
    19     8    44 1   
    20     8    45 1   
    21     8    46 1   
    22     9    22 ar  
    23     9    47 1   
    24    10    22 ar  
    25    10    23 ar  
    26    10    48 1   
    27    11    28 1   
    28    11    49 1   
    29    11    50 1   
    30    11    51 1   
    31    12    24 ar  
    32    12    25 ar  
    33    12    52 1   
    34    13    24 1   
    35    13    53 1   
    36    13    54 1   
    37    13    55 1   
    38    14    21 1   
    39    14    25 ar  
    40    14    31 ar  
    41    15    23 ar  
    42    15    41 1   
    43    16    17 ar  
    44    17    56 1   
    45    18    57 1   
    46    18    58 1   
    47    18    59 1   
    48    18    75 1   
    49    19    60 1   
    50    19    61 1   
    51    19    62 1   
    52    20    63 1   
    53    20    64 1   
    54    20    65 1   
    55    21    26 2   
    56    22    66 1   
    57    23    67 1   
    58    24    32 ar  
    59    25    68 1   
    60    27    28 1   
    61    27    69 1   
    62    28    29 2   
    63    28    30 2   
    64    31    32 ar  
    65    31    70 1   
    66    32    33 1   
    67    33    34 1   
    68    33    35 1   
    69    34    37 2   
    70    34    71 1   
    71    35    36 2   
    72    36    37 1   
    73    37    38 1   
    74    38    39 2   
    75    38    40 1   
    76    40    41 1   
    77    40    72 1   
    78    41    73 1   
    79    41    74 1   
@<TRIPOS>SUBSTRUCTURE
     1 337         1 TEMP              0 ****  ****    0 ROOT
