@<TRIPOS>MOLECULE
338
   32    35     1     0     0
SMALL
No Charge or Current Charge


@<TRIPOS>ATOM
      1 C1           4.9830    -0.1930    -0.2590 ca         1 338       0.157100
      2 C2           3.8820    -0.9550    -0.6940 ca         1 338      -0.138000
      3 C3           2.6120    -0.5780    -0.2450 ca         1 338       0.069100
      4 C4           2.4140     0.4860     0.5860 ca         1 338       0.020400
      5 C5           3.4930     1.2610     1.0370 ca         1 338      -0.004000
      6 C6           4.7920     0.9110     0.6030 ca         1 338      -0.218000
      7 O10          1.4360    -1.1770    -0.5460 os         1 338      -0.285700
      8 C11          0.5390    -0.3810     0.1600 cc         1 338       0.594200
      9 N12          1.0740     0.6290     0.8730 nd         1 338      -0.566100
     10 C13         -0.8770    -0.7730     0.1240 ca         1 338      -0.121900
     11 C15         -1.9510     0.1550    -0.0010 ca         1 338       0.033000
     12 C16         -3.2950    -0.3090     0.0560 ca         1 338      -0.072000
     13 C17         -3.5520    -1.6860     0.2280 ca         1 338      -0.045000
     14 C18         -2.4950    -2.5960     0.3390 ca         1 338      -0.140000
     15 C19         -1.1700    -2.1440     0.2910 ca         1 338      -0.052000
     16 C23         -1.7230     1.5360    -0.2170 ca         1 338      -0.132000
     17 C24         -2.7930     2.4350    -0.3400 ca         1 338      -0.062000
     18 C25         -4.1130     1.9730    -0.2590 ca         1 338      -0.220000
     19 C26         -4.3670     0.6080    -0.0670 ca         1 338       0.154100
     20 O30          6.2370    -0.5250    -0.6720 oh         1 338      -0.529100
     21 O31         -5.6660     0.1910    -0.0070 oh         1 338      -0.535100
     22 H2           4.0120    -1.8060    -1.3560 ha         1 338       0.149000
     23 H5           3.3300     2.1070     1.7010 ha         1 338       0.134000
     24 H6           5.6420     1.4990     0.9400 ha         1 338       0.117000
     25 H17         -4.5720    -2.0620     0.2730 ha         1 338       0.131000
     26 H18         -2.7020    -3.6560     0.4720 ha         1 338       0.120000
     27 H19         -0.3630    -2.8660     0.4000 ha         1 338       0.127000
     28 H23         -0.7200     1.9380    -0.3100 ha         1 338       0.148000
     29 H24         -2.5970     3.4930    -0.5030 ha         1 338       0.114000
     30 H25         -4.9330     2.6800    -0.3560 ha         1 338       0.114000
     31 H30          6.8720     0.1080    -0.2740 ho         1 338       0.469000
     32 H31         -6.2460     0.9750    -0.1140 ho         1 338       0.469000
@<TRIPOS>BOND
     1     1     2 ar  
     2     1     6 ar  
     3     1    20 1   
     4     2     3 ar  
     5     2    22 1   
     6     3     4 ar  
     7     3     7 1   
     8     4     5 ar  
     9     4     9 1   
    10     5     6 ar  
    11     5    23 1   
    12     6    24 1   
    13     7     8 1   
    14     8     9 2   
    15     8    10 1   
    16    10    11 ar  
    17    10    15 ar  
    18    11    12 ar  
    19    11    16 ar  
    20    12    13 ar  
    21    12    19 ar  
    22    13    14 ar  
    23    13    25 1   
    24    14    15 ar  
    25    14    26 1   
    26    15    27 1   
    27    16    17 ar  
    28    16    28 1   
    29    17    18 ar  
    30    17    29 1   
    31    18    19 ar  
    32    18    30 1   
    33    19    21 1   
    34    20    31 1   
    35    21    32 1   
@<TRIPOS>SUBSTRUCTURE
     1 338         1 TEMP              0 ****  ****    0 ROOT
