@<TRIPOS>MOLECULE
338
   32    35     1     0     0
SMALL
abcg2


@<TRIPOS>ATOM
      1 C1           4.9690    -0.3200    -0.0740 ca         1 338       0.157100
      2 C2           3.9020    -1.1820    -0.3250 ca         1 338      -0.138000
      3 C3           2.6510    -0.6560    -0.0900 ca         1 338       0.069100
      4 C4           2.4110     0.6350     0.3640 ca         1 338       0.020400
      5 C5           3.4830     1.4840     0.6090 ca         1 338      -0.004000
      6 C6           4.7570     0.9920     0.3840 ca         1 338      -0.218000
      7 O10          1.4490    -1.2520    -0.2470 os         1 338      -0.285700
      8 C11          0.5300    -0.3140     0.1210 cc         1 338       0.594200
      9 N12          1.0460     0.8070     0.4860 nd         1 338      -0.566100
     10 C13         -0.8690    -0.7280     0.0770 ca         1 338      -0.121900
     11 C15         -1.9460     0.2160     0.0360 ca         1 338       0.033000
     12 C16         -3.2770    -0.2940     0.0260 ca         1 338      -0.072000
     13 C17         -3.5060    -1.6880     0.0510 ca         1 338      -0.045000
     14 C18         -2.4550    -2.5620     0.0760 ca         1 338      -0.140000
     15 C19         -1.1400    -2.0810     0.0880 ca         1 338      -0.052000
     16 C23         -1.7580     1.6180    -0.0180 ca         1 338      -0.132000
     17 C24         -2.8380     2.4570    -0.0680 ca         1 338      -0.062000
     18 C25         -4.1530     1.9690    -0.0630 ca         1 338      -0.220000
     19 C26         -4.3720     0.6160    -0.0170 ca         1 338       0.154100
     20 O30          6.2080    -0.8010    -0.2910 oh         1 338      -0.529100
     21 O31         -5.6020     0.0740    -0.0140 oh         1 338      -0.535100
     22 H2           4.0600    -2.1920    -0.6780 ha         1 338       0.149000
     23 H5           3.3340     2.4950     0.9610 ha         1 338       0.134000
     24 H6           5.6120     1.6320     0.5650 ha         1 338       0.117000
     25 H17         -4.5170    -2.0680     0.0470 ha         1 338       0.131000
     26 H18         -2.6310    -3.6290     0.0940 ha         1 338       0.120000
     27 H19         -0.3340    -2.8000     0.1230 ha         1 338       0.127000
     28 H23         -0.7620     2.0290    -0.0120 ha         1 338       0.148000
     29 H24         -2.6800     3.5270    -0.1110 ha         1 338       0.114000
     30 H25         -4.9880     2.6590    -0.0990 ha         1 338       0.114000
     31 H30          6.8700    -0.1290    -0.0930 ho         1 338       0.469000
     32 H31         -6.2730     0.7660    -0.0460 ho         1 338       0.469000
@<TRIPOS>BOND
     1     1     2 ar  
     2     1     6 ar  
     3     1    20 1   
     4     2     3 ar  
     5     2    22 1   
     6     3     4 ar  
     7     3     7 1   
     8     4     5 ar  
     9     4     9 1   
    10     5     6 ar  
    11     5    23 1   
    12     6    24 1   
    13     7     8 1   
    14     8     9 2   
    15     8    10 1   
    16    10    11 ar  
    17    10    15 ar  
    18    11    12 ar  
    19    11    16 ar  
    20    12    13 ar  
    21    12    19 ar  
    22    13    14 ar  
    23    13    25 1   
    24    14    15 ar  
    25    14    26 1   
    26    15    27 1   
    27    16    17 ar  
    28    16    28 1   
    29    17    18 ar  
    30    17    29 1   
    31    18    19 ar  
    32    18    30 1   
    33    19    21 1   
    34    20    31 1   
    35    21    32 1   
@<TRIPOS>SUBSTRUCTURE
     1 338         1 TEMP              0 ****  ****    0 ROOT
