@<TRIPOS>MOLECULE
339
   91    92     1     0     0
SMALL
No Charge or Current Charge


@<TRIPOS>ATOM
      1 CX          -6.9960     2.0330    -2.0470 c          1 339       0.492600
      2 CY          -6.1130     1.2630    -1.0190 c3         1 339       0.036700
      3 CZ          -8.3320     1.4440    -2.3750 cc         1 339       0.317900
      4 OX          -6.5850     3.0730    -2.5620 o          1 339      -0.506100
      5 N1          -4.6820     1.5790    -1.2380 ns         1 339      -0.493900
      6 C2          -6.5520     1.5570     0.4410 c3         1 339      -0.082400
      7 C3          -5.8020     0.7330     1.5170 c3         1 339      -0.080400
      8 C4          -6.3230     1.0010     2.9440 c3         1 339       0.175800
      9 N5          -5.5670     0.1960     3.9180 n7         1 339      -0.876400
     10 C6          -6.0400     0.2500     5.1890 c3         1 339       0.620900
     11 N7          -6.5670    -0.9830     5.3350 n8         1 339      -1.043200
     12 N8          -4.9150     0.0240     5.8920 n8         1 339      -1.043200
     13 N9          -8.8290     0.3120    -1.8660 nd         1 339      -0.610000
     14 C10        -10.0890     0.0620    -2.3890 cd         1 339       0.271900
     15 C11        -10.5340     1.0010    -3.2870 cc         1 339      -0.282000
     16 S12         -9.3640     2.2660    -3.5210 ss         1 339       0.088600
     17 N13         -1.1970     0.2250    -1.1850 ns         1 339      -0.480900
     18 C14         -2.2300     1.2520    -1.4630 c3         1 339       0.033700
     19 C15         -3.6500     0.6620    -1.2070 c          1 339       0.593100
     20 O16         -3.8520    -0.5280    -0.9980 o          1 339      -0.606100
     21 C17         -2.0840     1.8540    -2.8980 c3         1 339      -0.064700
     22 C18         -0.7680     2.6460    -3.0790 c3         1 339      -0.094100
     23 C19         -2.2530     0.7970    -4.0170 c3         1 339      -0.094100
     24 N20          2.2820    -0.3960    -0.0030 ns         1 339      -0.488900
     25 C21          0.9110    -0.8030    -0.3870 c3         1 339       0.040700
     26 O23          0.3110     1.5600    -0.1190 o          1 339      -0.608100
     27 C24          0.3160    -1.8140     0.6330 c3         1 339      -0.085400
     28 C25          1.1030    -3.1410     0.7620 c3         1 339      -0.091400
     29 C26          0.4350    -4.1430     1.7220 c3         1 339       0.111000
     30 N27          1.2020    -5.3850     1.8220 ns         1 339      -0.522900
     31 C28          0.8680    -6.4250     2.6390 c          1 339       0.632100
     32 N29          1.7190    -7.4570     2.5630 nt         1 339      -0.594000
     33 O30         -0.1010    -6.4380     3.3730 o          1 339      -0.637100
     34 O32          3.4540    -1.8530    -1.3140 o          1 339      -0.646100
     35 N33          4.5560    -0.3970     0.0530 ns         1 339      -0.508900
     36 C34          5.9220    -0.8150    -0.2550 c3         1 339       0.168000
     37 C35          6.9010     0.3170     0.0540 ca         1 339      -0.083300
     38 C36          7.1130     0.7490     1.3820 ca         1 339      -0.097500
     39 C37          8.0130     1.7940     1.6540 ca         1 339      -0.085500
     40 C38          8.7040     2.4170     0.6020 ca         1 339      -0.013900
     41 C39          8.4960     1.9980    -0.7220 ca         1 339      -0.085500
     42 C40          7.5960     0.9530    -0.9950 ca         1 339      -0.097500
     43 Br41         9.9270     3.8400     0.9730 br         1 339      -0.097100
     44 C42          6.2830    -2.1210     0.4820 c3         1 339      -0.113100
     45 HY          -6.2700     0.1930    -1.2180 h1         1 339       0.108700
     46 HN1         -4.4330     2.5410    -1.4420 hn         1 339       0.325500
     47 H21A        -6.4160     2.6260     0.6480 hc         1 339       0.056700
     48 H22         -7.6260     1.3550     0.5380 hc         1 339       0.056700
     49 H31         -5.9050    -0.3350     1.2890 hc         1 339       0.051700
     50 H32         -4.7330     0.9710     1.4810 hc         1 339       0.051700
     51 H41         -6.2170     2.0710     3.1690 h1         1 339       0.036200
     52 H42         -7.3930     0.7530     2.9850 h1         1 339       0.036200
     53 HN5         -5.7740    -0.7820     3.7160 hn         1 339       0.427000
     54 H6          -6.6640     1.0920     5.5280 h3         1 339       0.037700
     55 HN71        -5.8260    -1.4540     5.8510 hn         1 339       0.407250
     56 HN72        -7.2980    -0.8850     6.0390 hn         1 339       0.407250
     57 HN81        -4.2550    -0.1470     5.1340 hn         1 339       0.407250
     58 HN82        -4.6220     0.9380     6.2380 hn         1 339       0.407250
     59 H10        -10.6340    -0.8210    -2.0770 h4         1 339       0.046100
     60 H11        -11.4720     1.0270    -3.8250 h4         1 339       0.163000
     61 H13         -1.3930    -0.7300    -1.4640 hn         1 339       0.332500
     62 H14         -2.1170     2.0670    -0.7360 h1         1 339       0.090700
     63 H17         -2.8930     2.5840    -3.0290 hc         1 339       0.046700
     64 H181        -0.7570     3.1600    -4.0480 hc         1 339       0.042700
     65 H182        -0.6590     3.4050    -2.2940 hc         1 339       0.042700
     66 H183         0.1040     1.9820    -3.0400 hc         1 339       0.042700
     67 H191        -1.4600     0.0410    -3.9710 hc         1 339       0.042700
     68 H192        -3.2200     0.2860    -3.9370 hc         1 339       0.042700
     69 H193        -2.2100     1.2720    -5.0040 hc         1 339       0.042700
     70 H20          2.3810     0.3740     0.6470 hn         1 339       0.308500
     71 H21          0.9470    -1.2810    -1.3750 h1         1 339       0.082700
     72 H241         0.2560    -1.3340     1.6190 hc         1 339       0.062700
     73 H242        -0.7150    -2.0510     0.3410 hc         1 339       0.062700
     74 H251         1.1980    -3.6010    -0.2300 hc         1 339       0.047200
     75 H252         2.1170    -2.9330     1.1230 hc         1 339       0.047200
     76 H261         0.3520    -3.6960     2.7210 h1         1 339       0.053200
     77 H262        -0.5760    -4.3800     1.3640 h1         1 339       0.053200
     78 H27          2.0320    -5.4880     1.2550 hn         1 339       0.304500
     79 H291         2.5150    -7.4190     1.9450 hn         1 339       0.299500
     80 H292         1.5520    -8.2720     3.1320 hn         1 339       0.299500
     81 H33          4.4280     0.3530     0.7180 hn         1 339       0.306500
     82 H34          5.9710    -1.0230    -1.3330 h1         1 339       0.087700
     83 H36          6.5810     0.2780     2.2050 ha         1 339       0.118500
     84 H37          8.1720     2.1210     2.6790 ha         1 339       0.130500
     85 H39          9.0300     2.4830    -1.5370 ha         1 339       0.130500
     86 H40          7.4420     0.6380    -2.0250 ha         1 339       0.118500
     87 H421         6.1880    -2.0050     1.5680 hc         1 339       0.045033
     88 H422         5.6240    -2.9390     0.1680 hc         1 339       0.045033
     89 H423         7.3160    -2.4130     0.2560 hc         1 339       0.045033
     90 C22          0.0010     0.4510    -0.5380 c          1 339       0.587100
     91 C31          3.4330    -0.9570    -0.4870 c          1 339       0.644100
@<TRIPOS>BOND
     1     1     2 1   
     2     1     3 1   
     3     1     4 2   
     4     2     5 1   
     5     2     6 1   
     6     2    45 1   
     7     3    13 2   
     8     3    16 1   
     9     5    19 1   
    10     5    46 1   
    11     6     7 1   
    12     6    47 1   
    13     6    48 1   
    14     7     8 1   
    15     7    49 1   
    16     7    50 1   
    17     8     9 1   
    18     8    51 1   
    19     8    52 1   
    20     9    10 1   
    21     9    53 1   
    22    10    11 1   
    23    10    12 1   
    24    10    54 1   
    25    11    55 1   
    26    11    56 1   
    27    12    57 1   
    28    12    58 1   
    29    13    14 1   
    30    14    15 2   
    31    14    59 1   
    32    15    16 1   
    33    15    60 1   
    34    17    18 1   
    35    17    61 1   
    36    17    90 1   
    37    18    19 1   
    38    18    21 1   
    39    18    62 1   
    40    19    20 2   
    41    21    22 1   
    42    21    23 1   
    43    21    63 1   
    44    22    64 1   
    45    22    65 1   
    46    22    66 1   
    47    23    67 1   
    48    23    68 1   
    49    23    69 1   
    50    24    25 1   
    51    24    70 1   
    52    24    91 1   
    53    25    27 1   
    54    25    71 1   
    55    25    90 1   
    56    26    90 2   
    57    27    28 1   
    58    27    72 1   
    59    27    73 1   
    60    28    29 1   
    61    28    74 1   
    62    28    75 1   
    63    29    30 1   
    64    29    76 1   
    65    29    77 1   
    66    30    31 1   
    67    30    78 1   
    68    31    32 1   
    69    31    33 2   
    70    32    79 1   
    71    32    80 1   
    72    34    91 2   
    73    35    36 1   
    74    35    81 1   
    75    35    91 1   
    76    36    37 1   
    77    36    44 1   
    78    36    82 1   
    79    37    38 ar  
    80    37    42 ar  
    81    38    39 ar  
    82    38    83 1   
    83    39    40 ar  
    84    39    84 1   
    85    40    41 ar  
    86    40    43 1   
    87    41    42 ar  
    88    41    85 1   
    89    42    86 1   
    90    44    87 1   
    91    44    88 1   
    92    44    89 1   
@<TRIPOS>SUBSTRUCTURE
     1 339         1 TEMP              0 ****  ****    0 ROOT
