@<TRIPOS>MOLECULE
339
   91    92     1     0     0
SMALL
abcg2


@<TRIPOS>ATOM
      1 CX          -5.9970     0.6000    -1.7880 c          1 339       0.492600
      2 CY          -5.4630     0.5300    -0.3650 c3         1 339       0.036700
      3 CZ          -7.2130    -0.1790    -2.0780 cc         1 339       0.317900
      4 OX          -5.4890     1.2710    -2.6550 o          1 339      -0.506100
      5 N1          -4.0660     0.8640    -0.3340 ns         1 339      -0.493900
      6 C2          -6.2610     1.4860     0.5280 c3         1 339      -0.082400
      7 C3          -5.8740     1.3770     1.9980 c3         1 339      -0.080400
      8 C4          -6.6660     2.3460     2.8630 c3         1 339       0.175800
      9 N5          -6.2530     2.2500     4.2480 n7         1 339      -0.876400
     10 C6          -6.8090     3.2540     5.1200 c3         1 339       0.620900
     11 N7          -8.2560     3.2190     5.1940 n8         1 339      -1.043200
     12 N8          -6.2040     3.0500     6.4260 n8         1 339      -1.043200
     13 N9          -7.8220    -0.9650    -1.2420 nd         1 339      -0.610000
     14 C10         -8.9060    -1.5380    -1.8170 cd         1 339       0.271900
     15 C11         -9.1280    -1.1830    -3.1170 cc         1 339      -0.282000
     16 S12         -7.9340    -0.0900    -3.6400 ss         1 339       0.088600
     17 N13         -0.7760    -0.4560    -0.9820 ns         1 339      -0.480900
     18 C14         -1.7170     0.6210    -0.8390 c3         1 339       0.033700
     19 C15         -3.1340     0.0610    -0.8720 c          1 339       0.593100
     20 O16         -3.4050    -1.0230    -1.3630 o          1 339      -0.606100
     21 C17         -1.5260     1.7200    -1.9100 c3         1 339      -0.064700
     22 C18         -0.1540     2.3680    -1.7610 c3         1 339      -0.094100
     23 C19         -1.7360     1.1980    -3.3270 c3         1 339      -0.094100
     24 N20          2.4770    -1.7180    -0.1710 ns         1 339      -0.488900
     25 C21          1.0840    -1.9120    -0.4720 c3         1 339       0.040700
     26 O23          0.5670     0.0840     0.7620 o          1 339      -0.608100
     27 C24          0.5170    -3.0700     0.3500 c3         1 339      -0.085400
     28 C25          1.2140    -4.3980     0.0790 c3         1 339      -0.091400
     29 C26          0.5380    -5.5360     0.8270 c3         1 339       0.111000
     30 N27          1.2430    -6.7770     0.5960 ns         1 339      -0.522900
     31 C28          0.8970    -7.9200     1.2400 c          1 339       0.632100
     32 N29          1.5310    -9.0470     0.8010 nt         1 339      -0.594000
     33 O30          0.0580    -7.9420     2.1350 o          1 339      -0.637100
     34 O32          2.7250    -0.2420    -1.8720 o          1 339      -0.646100
     35 N33          4.3980    -0.4700    -0.3490 ns         1 339      -0.508900
     36 C34          5.3390     0.3780    -1.0610 c3         1 339       0.168000
     37 C35          6.2030     1.1020    -0.0520 ca         1 339      -0.083300
     38 C36          7.2130     0.4390     0.6410 ca         1 339      -0.097500
     39 C37          7.9860     1.0960     1.5870 ca         1 339      -0.085500
     40 C38          7.7470     2.4390     1.8380 ca         1 339      -0.013900
     41 C39          6.7510     3.1260     1.1610 ca         1 339      -0.085500
     42 C40          5.9850     2.4470     0.2230 ca         1 339      -0.097500
     43 BR41         8.7970     3.3470     3.1190 br         1 339      -0.097100
     44 C42          6.1570    -0.3980    -2.0890 c3         1 339      -0.113100
     45 HY          -5.6070    -0.4890     0.0040 h1         1 339       0.108700
     46 HN1         -3.7970     1.7710     0.0140 hn         1 339       0.325500
     47 H21A        -6.1200     2.5130     0.1730 hc         1 339       0.056700
     48 H22         -7.3240     1.2620     0.4150 hc         1 339       0.056700
     49 H31         -6.0460     0.3510     2.3380 hc         1 339       0.051700
     50 H32         -4.8080     1.5790     2.1340 hc         1 339       0.051700
     51 H41         -6.4700     3.3680     2.5220 h1         1 339       0.036200
     52 H42         -7.7420     2.1770     2.7210 h1         1 339       0.036200
     53 HN5         -6.4750     1.3310     4.6160 hn         1 339       0.427000
     54 H6          -6.5560     4.2300     4.6790 h3         1 339       0.037700
     55 HN71        -8.5420     2.4550     5.7970 hn         1 339       0.407250
     56 HN72        -8.6050     4.0670     5.6240 hn         1 339       0.407250
     57 HN81        -5.1990     3.1590     6.3550 hn         1 339       0.407250
     58 HN82        -6.5260     3.7660     7.0650 hn         1 339       0.407250
     59 H10         -9.5210    -2.2230    -1.2510 h4         1 339       0.046100
     60 H11         -9.9200    -1.5150    -3.7690 h4         1 339       0.163000
     61 H13         -0.9280    -1.1160    -1.7280 hn         1 339       0.332500
     62 H14         -1.5450     1.0740     0.1410 h1         1 339       0.090700
     63 H17         -2.2830     2.4860    -1.7160 hc         1 339       0.046700
     64 H181        -0.0380     3.1740    -2.4880 hc         1 339       0.042700
     65 H182        -0.0200     2.7930    -0.7660 hc         1 339       0.042700
     66 H183         0.6490     1.6490    -1.9310 hc         1 339       0.042700
     67 H191        -1.0320     0.4000    -3.5710 hc         1 339       0.042700
     68 H192        -2.7460     0.8230    -3.4870 hc         1 339       0.042700
     69 H193        -1.5730     2.0010    -4.0470 hc         1 339       0.042700
     70 H20          2.7630    -1.9190     0.7750 hn         1 339       0.308500
     71 H21          0.9820    -2.1640    -1.5320 h1         1 339       0.082700
     72 H241         0.5790    -2.8280     1.4160 hc         1 339       0.062700
     73 H242        -0.5470    -3.1630     0.1160 hc         1 339       0.062700
     74 H251         1.1970    -4.6010    -0.9970 hc         1 339       0.047200
     75 H252         2.2640    -4.3430     0.3730 hc         1 339       0.047200
     76 H261         0.5330    -5.3170     1.8970 h1         1 339       0.053200
     77 H262        -0.5100    -5.6090     0.5140 h1         1 339       0.053200
     78 H27          1.7880    -6.8450    -0.2490 hn         1 339       0.304500
     79 H291         2.4040    -8.9650     0.3060 hn         1 339       0.299500
     80 H292         1.4680    -9.8520     1.4010 hn         1 339       0.299500
     81 H33          4.7690    -1.0510     0.3880 hn         1 339       0.306500
     82 H34          4.7490     1.1280    -1.5900 h1         1 339       0.087700
     83 H36          7.4140    -0.6080     0.4510 ha         1 339       0.118500
     84 H37          8.7640     0.5580     2.1120 ha         1 339       0.130500
     85 H39          6.5630     4.1730     1.3530 ha         1 339       0.130500
     86 H40          5.2060     2.9850    -0.3030 ha         1 339       0.118500
     87 H421         6.7650    -1.1740    -1.6220 hc         1 339       0.045033
     88 H422         5.4950    -0.8790    -2.8090 hc         1 339       0.045033
     89 H423         6.8220     0.2700    -2.6360 hc         1 339       0.045033
     90 C22          0.2790    -0.6460    -0.1720 c          1 339       0.587100
     91 C31          3.1780    -0.7700    -0.8620 c          1 339       0.644100
@<TRIPOS>BOND
     1     1     2 1   
     2     1     3 1   
     3     1     4 2   
     4     2     5 1   
     5     2     6 1   
     6     2    45 1   
     7     3    13 2   
     8     3    16 1   
     9     5    19 1   
    10     5    46 1   
    11     6     7 1   
    12     6    47 1   
    13     6    48 1   
    14     7     8 1   
    15     7    49 1   
    16     7    50 1   
    17     8     9 1   
    18     8    51 1   
    19     8    52 1   
    20     9    10 1   
    21     9    53 1   
    22    10    11 1   
    23    10    12 1   
    24    10    54 1   
    25    11    55 1   
    26    11    56 1   
    27    12    57 1   
    28    12    58 1   
    29    13    14 1   
    30    14    15 2   
    31    14    59 1   
    32    15    16 1   
    33    15    60 1   
    34    17    18 1   
    35    17    61 1   
    36    17    90 1   
    37    18    19 1   
    38    18    21 1   
    39    18    62 1   
    40    19    20 2   
    41    21    22 1   
    42    21    23 1   
    43    21    63 1   
    44    22    64 1   
    45    22    65 1   
    46    22    66 1   
    47    23    67 1   
    48    23    68 1   
    49    23    69 1   
    50    24    25 1   
    51    24    70 1   
    52    24    91 1   
    53    25    27 1   
    54    25    71 1   
    55    25    90 1   
    56    26    90 2   
    57    27    28 1   
    58    27    72 1   
    59    27    73 1   
    60    28    29 1   
    61    28    74 1   
    62    28    75 1   
    63    29    30 1   
    64    29    76 1   
    65    29    77 1   
    66    30    31 1   
    67    30    78 1   
    68    31    32 1   
    69    31    33 2   
    70    32    79 1   
    71    32    80 1   
    72    34    91 2   
    73    35    36 1   
    74    35    81 1   
    75    35    91 1   
    76    36    37 1   
    77    36    44 1   
    78    36    82 1   
    79    37    38 ar  
    80    37    42 ar  
    81    38    39 ar  
    82    38    83 1   
    83    39    40 ar  
    84    39    84 1   
    85    40    41 ar  
    86    40    43 1   
    87    41    42 ar  
    88    41    85 1   
    89    42    86 1   
    90    44    87 1   
    91    44    88 1   
    92    44    89 1   
@<TRIPOS>SUBSTRUCTURE
     1 339         1 TEMP              0 ****  ****    0 ROOT
