@<TRIPOS>MOLECULE
33A
   44    47     1     0     0
SMALL
No Charge or Current Charge


@<TRIPOS>ATOM
      1 C2           9.2030    -1.8370    -3.0450 ca         1 33A       0.119000
      2 C3          10.2570    -2.1800    -2.1840 ca         1 33A      -0.107000
      3 C4           9.9760    -2.6490    -0.8920 ca         1 33A      -0.107000
      4 C5           8.6420    -2.7580    -0.4600 ca         1 33A      -0.097000
      5 C6           7.5750    -2.3790    -1.3030 ca         1 33A       0.020000
      6 C7           7.8710    -1.9460    -2.6130 ca         1 33A      -0.104000
      7 C8           6.1780    -2.4970    -0.8630 cc         1 33A      -0.160000
      8 Cl1          9.5530    -1.2650    -4.6710 cl         1 33A      -0.209000
      9 C9           5.2760    -3.0660    -1.7160 cd         1 33A      -0.155000
     10 N10          4.1460    -3.3150    -0.9320 na         1 33A       0.001800
     11 N12          4.3260    -2.9370     0.3970 nd         1 33A      -0.525800
     12 C13          5.5480    -2.4320     0.4110 cc         1 33A       0.362500
     13 C14          6.1330    -1.8210     1.5870 cc         1 33A      -0.211500
     14 C15          5.5710    -1.8920     2.8370 cd         1 33A      -0.139000
     15 N16          6.4190    -1.1740     3.6940 na         1 33A      -0.063000
     16 C18          7.4890    -0.6330     2.9640 cd         1 33A      -0.264600
     17 C19          7.2890    -1.0180     1.6620 cc         1 33A      -0.116000
     18 C20          8.6160     0.1860     3.4800 c          1 33A       0.644700
     19 O21          8.7390     0.5100     4.6520 o          1 33A      -0.621100
     20 N22          9.5220     0.5310     2.5110 ns         1 33A      -0.497900
     21 C23         10.7670     1.2510     2.7420 c3         1 33A       0.147300
     22 C24         11.6250     1.2200     1.4850 ca         1 33A      -0.112300
     23 C25         12.1850     0.0040     1.0430 ca         1 33A      -0.100500
     24 C26         12.9540    -0.0380    -0.1320 ca         1 33A      -0.109000
     25 C27         13.1700     1.1360    -0.8730 ca         1 33A      -0.106000
     26 C28         12.6150     2.3510    -0.4380 ca         1 33A      -0.109000
     27 C29         11.8430     2.3930     0.7370 ca         1 33A      -0.100500
     28 H3          11.2870    -2.0920    -2.5220 ha         1 33A       0.128000
     29 H4          10.7880    -2.9350    -0.2270 ha         1 33A       0.117000
     30 H5           8.4380    -3.1540     0.5320 ha         1 33A       0.128000
     31 H7           7.0690    -1.6660    -3.2910 ha         1 33A       0.128000
     32 H9           5.3580    -3.3710    -2.7540 h4         1 33A       0.158000
     33 HN10         3.2790    -3.7490    -1.2490 hn         1 33A       0.374000
     34 H15          4.6710    -2.3910     3.1800 h4         1 33A       0.160000
     35 HN16         6.2780    -1.0580     4.6950 hn         1 33A       0.368000
     36 H19          7.8930    -0.7240     0.8100 ha         1 33A       0.139000
     37 HN22         9.3260     0.2060     1.5750 hn         1 33A       0.322500
     38 H231        11.3110     0.7800     3.5720 h1         1 33A       0.066700
     39 H232        10.5370     2.2860     3.0250 h1         1 33A       0.066700
     40 H25         12.0180    -0.9110     1.6090 ha         1 33A       0.114000
     41 H26         13.3810    -0.9800    -0.4690 ha         1 33A       0.112500
     42 H27         13.7640     1.1040    -1.7840 ha         1 33A       0.113000
     43 H28         12.7800     3.2600    -1.0120 ha         1 33A       0.112500
     44 H29         11.4120     3.3380     1.0610 ha         1 33A       0.114000
@<TRIPOS>BOND
     1     1     2 ar  
     2     1     6 ar  
     3     1     8 1   
     4     2     3 ar  
     5     2    28 1   
     6     3     4 ar  
     7     3    29 1   
     8     4     5 ar  
     9     4    30 1   
    10     5     6 ar  
    11     5     7 1   
    12     6    31 1   
    13     7     9 2   
    14     7    12 1   
    15     9    10 1   
    16     9    32 1   
    17    10    11 1   
    18    10    33 1   
    19    11    12 2   
    20    12    13 1   
    21    13    14 2   
    22    13    17 1   
    23    14    15 1   
    24    14    34 1   
    25    15    16 1   
    26    15    35 1   
    27    16    17 2   
    28    16    18 1   
    29    17    36 1   
    30    18    19 2   
    31    18    20 1   
    32    20    21 1   
    33    20    37 1   
    34    21    22 1   
    35    21    38 1   
    36    21    39 1   
    37    22    23 ar  
    38    22    27 ar  
    39    23    24 ar  
    40    23    40 1   
    41    24    25 ar  
    42    24    41 1   
    43    25    26 ar  
    44    25    42 1   
    45    26    27 ar  
    46    26    43 1   
    47    27    44 1   
@<TRIPOS>SUBSTRUCTURE
     1 33A         1 TEMP              0 ****  ****    0 ROOT
