@<TRIPOS>MOLECULE
33A
   44    47     1     0     0
SMALL
bcc


@<TRIPOS>ATOM
      1 C2           8.9810    -1.9190    -3.1670 ca         1 33A       0.027400
      2 C3          10.0910    -2.2600    -2.4120 ca         1 33A      -0.125000
      3 C4           9.8890    -2.8040    -1.1500 ca         1 33A      -0.125000
      4 C5           8.6080    -2.9990    -0.6590 ca         1 33A      -0.115000
      5 C6           7.4940    -2.6400    -1.4190 ca         1 33A       0.020000
      6 C7           7.6920    -2.0960    -2.6880 ca         1 33A      -0.122000
      7 C8           6.1340    -2.8430    -0.9110 cc         1 33A      -0.225300
      8 CL1          9.2040    -1.2380    -4.7470 cl         1 33A      -0.117400
      9 C9           5.0810    -3.4240    -1.5870 cd         1 33A      -0.122300
     10 N10          4.0480    -3.4460    -0.7370 na         1 33A       0.001400
     11 N12          4.3300    -2.9120     0.4450 nd         1 33A      -0.525800
     12 C13          5.5980    -2.5370     0.3660 cc         1 33A       0.427800
     13 C14          6.2590    -1.8870     1.4890 cc         1 33A      -0.211500
     14 C15          6.0050    -2.1060     2.8320 cd         1 33A      -0.106300
     15 N16          6.8380    -1.3300     3.5510 na         1 33A      -0.114100
     16 C18          7.6310    -0.5960     2.7210 cd         1 33A      -0.213900
     17 C19          7.2900    -0.9230     1.4270 cc         1 33A      -0.134000
     18 C20          8.6910     0.2640     3.2590 c          1 33A       0.711700
     19 O21          9.0340     0.1920     4.4340 o          1 33A      -0.621100
     20 N22          9.2530     1.0970     2.3620 ns         1 33A      -0.564900
     21 C23         10.4720     1.8330     2.5830 c3         1 33A       0.147300
     22 C24         11.5160     1.5250     1.5360 ca         1 33A      -0.112300
     23 C25         11.6450     0.2490     0.9920 ca         1 33A      -0.118500
     24 C26         12.6220    -0.0200     0.0430 ca         1 33A      -0.127000
     25 C27         13.4880     0.9830    -0.3730 ca         1 33A      -0.124000
     26 C28         13.3680     2.2570     0.1650 ca         1 33A      -0.127000
     27 C29         12.3850     2.5250     1.1090 ca         1 33A      -0.118500
     28 H3          11.0900    -2.1090    -2.7960 ha         1 33A       0.146000
     29 H4          10.7450    -3.0860    -0.5510 ha         1 33A       0.135000
     30 H5           8.4710    -3.4370     0.3210 ha         1 33A       0.146000
     31 H7           6.8430    -1.8000    -3.2910 ha         1 33A       0.146000
     32 H9           5.0150    -3.8340    -2.5820 h4         1 33A       0.176000
     33 HN10         3.1290    -3.8190    -0.9120 hn         1 33A       0.323700
     34 H15          5.3000    -2.7670     3.3080 h4         1 33A       0.178000
     35 HN16         6.8810    -1.3020     4.5580 hn         1 33A       0.317700
     36 H19          7.7380    -0.5310     0.5270 ha         1 33A       0.157000
     37 HN22         8.8460     1.1600     1.4420 hn         1 33A       0.322500
     38 H231        10.8450     1.5730     3.5740 h1         1 33A       0.066700
     39 H232        10.2730     2.9070     2.5960 h1         1 33A       0.066700
     40 H25         10.9760    -0.5450     1.3020 ha         1 33A       0.132000
     41 H26         12.7070    -1.0160    -0.3730 ha         1 33A       0.130500
     42 H27         14.2490     0.7750    -1.1140 ha         1 33A       0.131000
     43 H28         14.0340     3.0480    -0.1560 ha         1 33A       0.130500
     44 H29         12.2900     3.5260     1.5140 ha         1 33A       0.132000
@<TRIPOS>BOND
     1     1     2 ar  
     2     1     6 ar  
     3     1     8 1   
     4     2     3 ar  
     5     2    28 1   
     6     3     4 ar  
     7     3    29 1   
     8     4     5 ar  
     9     4    30 1   
    10     5     6 ar  
    11     5     7 1   
    12     6    31 1   
    13     7     9 2   
    14     7    12 1   
    15     9    10 1   
    16     9    32 1   
    17    10    11 1   
    18    10    33 1   
    19    11    12 2   
    20    12    13 1   
    21    13    14 2   
    22    13    17 1   
    23    14    15 1   
    24    14    34 1   
    25    15    16 1   
    26    15    35 1   
    27    16    17 2   
    28    16    18 1   
    29    17    36 1   
    30    18    19 2   
    31    18    20 1   
    32    20    21 1   
    33    20    37 1   
    34    21    22 1   
    35    21    38 1   
    36    21    39 1   
    37    22    23 ar  
    38    22    27 ar  
    39    23    24 ar  
    40    23    40 1   
    41    24    25 ar  
    42    24    41 1   
    43    25    26 ar  
    44    25    42 1   
    45    26    27 ar  
    46    26    43 1   
    47    27    44 1   
@<TRIPOS>SUBSTRUCTURE
     1 33A         1 TEMP              0 ****  ****    0 ROOT
