@<TRIPOS>MOLECULE
33B
   44    45     1     0     0
SMALL
bcc


@<TRIPOS>ATOM
      1 C1           8.1500     1.0610     0.2060 c3         1 33B      -0.049000
      2 C2           6.6680     1.3520     0.0190 c          1 33B       0.676100
      3 O2           6.2460     2.3930    -0.4290 o          1 33B      -0.579100
      4 N3           5.9110     0.2910     0.3970 ns         1 33B      -0.487100
      5 C4           4.5280     0.1560     0.2940 ca         1 33B       0.157100
      6 C5           3.6610     1.2520     0.3650 ca         1 33B      -0.189000
      7 C6           3.9790    -1.1310     0.1730 ca         1 33B      -0.289000
      8 S6           5.0270    -2.5790    -0.0280 s6         1 33B       1.270100
      9 C7           2.2950     1.0760     0.3040 ca         1 33B      -0.068000
     10 C8           2.6070    -1.2970     0.1270 ca         1 33B       0.017000
     11 C9           1.7510    -0.2030     0.1840 ca         1 33B       0.028900
     12 N10          0.3830    -0.4990     0.1290 ne         1 33B      -0.209400
     13 N11         -0.3750     0.4820     0.1400 nf         1 33B      -0.209400
     14 C12         -1.7430     0.1860     0.0890 ca         1 33B       0.028900
     15 C13         -2.2870    -1.0950    -0.0070 ca         1 33B      -0.068000
     16 C14         -2.5980     1.2810     0.1310 ca         1 33B       0.017000
     17 C15         -3.6540    -1.2720    -0.0590 ca         1 33B      -0.189000
     18 C16         -3.9710     1.1140     0.0940 ca         1 33B      -0.289000
     19 C17         -4.5200    -0.1740    -0.0000 ca         1 33B       0.157100
     20 S17         -5.0200     2.5640     0.2720 s6         1 33B       1.270100
     21 N18         -5.9040    -0.3140    -0.0880 ns         1 33B      -0.487100
     22 C19         -6.6550    -1.3590     0.3430 c          1 33B       0.676100
     23 O19         -6.2230    -2.3830     0.8210 o          1 33B      -0.579100
     24 C20         -8.1400    -1.0720     0.1800 c3         1 33B      -0.049000
     25 O61          5.5180    -2.5000    -1.4090 o          1 33B      -0.694867
     26 O62          6.1040    -2.4050     0.9780 o          1 33B      -0.694867
     27 O63          4.1730    -3.7400     0.2410 o          1 33B      -0.694867
     28 O71         -5.5100     2.5080     1.6540 o          1 33B      -0.694867
     29 O72         -4.1640     3.7210    -0.0170 o          1 33B      -0.694867
     30 O73         -6.0960     2.3740    -0.7310 o          1 33B      -0.694867
     31 HN3          6.3860    -0.5540     0.7140 hn         1 33B       0.374000
     32 H5           4.0540     2.2490     0.4870 ha         1 33B       0.140500
     33 H7           1.6450     1.9380     0.3670 ha         1 33B       0.143000
     34 H8           2.1800    -2.2870     0.0400 ha         1 33B       0.164000
     35 CL1          9.1380     2.4880    -0.1420 cl         1 33B      -0.190400
     36 H1           8.3510     0.7420     1.2280 h1         1 33B       0.087200
     37 H13         -1.6380    -1.9580    -0.0590 ha         1 33B       0.143000
     38 H14         -2.1710     2.2720     0.1990 ha         1 33B       0.164000
     39 H15         -4.0470    -2.2710    -0.1630 ha         1 33B       0.140500
     40 HN18        -6.3840     0.5190    -0.4260 hn         1 33B       0.374000
     41 CL2         -9.1180    -2.5040     0.5370 cl         1 33B      -0.190400
     42 H20         -8.4380    -0.2750     0.8620 h1         1 33B       0.087200
     43 H1A          8.4580     0.2590    -0.4660 h1         1 33B       0.087200
     44 H20A        -8.3600    -0.7480    -0.8360 h1         1 33B       0.087200
@<TRIPOS>BOND
     1     1     2 1   
     2     1    35 1   
     3     1    36 1   
     4     1    43 1   
     5     2     3 2   
     6     2     4 1   
     7     4     5 1   
     8     4    31 1   
     9     5     6 ar  
    10     5     7 ar  
    11     6     9 ar  
    12     6    32 1   
    13     7     8 1   
    14     7    10 ar  
    15     8    25 1   
    16     8    26 1   
    17     8    27 1   
    18     9    11 ar  
    19     9    33 1   
    20    10    11 ar  
    21    10    34 1   
    22    11    12 1   
    23    12    13 2   
    24    13    14 1   
    25    14    15 ar  
    26    14    16 ar  
    27    15    17 ar  
    28    15    37 1   
    29    16    18 ar  
    30    16    38 1   
    31    17    19 ar  
    32    17    39 1   
    33    18    19 ar  
    34    18    20 1   
    35    19    21 1   
    36    20    28 1   
    37    20    29 1   
    38    20    30 1   
    39    21    22 1   
    40    21    40 1   
    41    22    23 2   
    42    22    24 1   
    43    24    41 1   
    44    24    42 1   
    45    24    44 1   
@<TRIPOS>SUBSTRUCTURE
     1 33B         1 TEMP              0 ****  ****    0 ROOT
