@<TRIPOS>MOLECULE
33B
   44    45     1     0     0
SMALL
No Charge or Current Charge


@<TRIPOS>ATOM
      1 C1           8.3010     1.0290     0.0590 c3         1 33B       0.027600
      2 C2           6.8090     1.4000    -0.0260 c          1 33B       0.609100
      3 O2           6.4220     2.5190    -0.3510 o          1 33B      -0.579100
      4 N3           5.9620     0.3470     0.2780 ns         1 33B      -0.161000
      5 C4           4.5470     0.2570     0.3760 ca         1 33B       0.064500
      6 C5           3.7520     1.4050     0.5900 ca         1 33B      -0.171000
      7 C6           3.9190    -1.0130     0.2960 ca         1 33B      -0.289000
      8 S6           4.8920    -2.5660     0.0090 s6         1 33B       1.270100
      9 C7           2.3560     1.3050     0.6960 ca         1 33B      -0.050000
     10 C8           2.5100    -1.0960     0.3940 ca         1 33B       0.035000
     11 C9           1.7280     0.0550     0.5910 ca         1 33B       0.028900
     12 N10          0.3280    -0.0450     0.6990 ne         1 33B      -0.209400
     13 N11         -0.3130     0.0300    -0.3890 nf         1 33B      -0.209400
     14 C12         -1.7210    -0.0710    -0.2820 ca         1 33B       0.028900
     15 C13         -2.3470    -1.3220    -0.3890 ca         1 33B      -0.050000
     16 C14         -2.5020     1.0810    -0.0850 ca         1 33B       0.035000
     17 C15         -3.7430    -1.4210    -0.2840 ca         1 33B      -0.171000
     18 C16         -3.9100     0.9980     0.0110 ca         1 33B      -0.289000
     19 C17         -4.5380    -0.2730    -0.0710 ca         1 33B       0.064500
     20 S17         -4.8840     2.5510     0.2980 s6         1 33B       1.270100
     21 N18         -5.9530    -0.3620     0.0260 ns         1 33B      -0.161000
     22 C19         -6.8010    -1.4150     0.3290 c          1 33B       0.609100
     23 O19         -6.4140    -2.5340     0.6540 o          1 33B      -0.579100
     24 C20         -8.2930    -1.0440     0.2420 c3         1 33B       0.027600
     25 O61          5.2270    -2.4250    -1.4150 o          1 33B      -0.694867
     26 O62          6.0170    -2.3940     0.9390 o          1 33B      -0.694867
     27 O63          3.9270    -3.6230     0.3430 o          1 33B      -0.694867
     28 O71         -5.2210     2.4090     1.7210 o          1 33B      -0.694867
     29 O72         -3.9180     3.6070    -0.0340 o          1 33B      -0.694867
     30 O73         -6.0070     2.3790    -0.6350 o          1 33B      -0.694867
     31 HN3          6.4360    -0.5230     0.4930 hn         1 33B       0.207500
     32 H5           4.2030     2.3870     0.6920 ha         1 33B       0.122500
     33 H7           1.7590     2.2000     0.8610 ha         1 33B       0.125000
     34 H8           2.0050    -2.0560     0.3140 ha         1 33B       0.146000
     35 Cl1          9.4620     2.3970    -0.3190 cl         1 33B      -0.267000
     36 H1           8.5150     0.6770     1.0750 h1         1 33B       0.087200
     37 H13         -1.7500    -2.2160    -0.5530 ha         1 33B       0.125000
     38 H14         -1.9950     2.0400    -0.0050 ha         1 33B       0.146000
     39 H15         -4.1950    -2.4030    -0.3870 ha         1 33B       0.122500
     40 HN18        -6.4260     0.5080    -0.1900 hn         1 33B       0.207500
     41 Cl2         -9.4540    -2.4120     0.6190 cl         1 33B      -0.267000
     42 H20         -8.4910    -0.2290     0.9470 h1         1 33B       0.087200
     43 H1A          8.4980     0.2140    -0.6470 h1         1 33B       0.087200
     44 H20A        -8.5050    -0.6920    -0.7750 h1         1 33B       0.087200
@<TRIPOS>BOND
     1     1     2 1   
     2     1    35 1   
     3     1    36 1   
     4     1    43 1   
     5     2     3 2   
     6     2     4 1   
     7     4     5 1   
     8     4    31 1   
     9     5     6 ar  
    10     5     7 ar  
    11     6     9 ar  
    12     6    32 1   
    13     7     8 1   
    14     7    10 ar  
    15     8    25 1   
    16     8    26 1   
    17     8    27 1   
    18     9    11 ar  
    19     9    33 1   
    20    10    11 ar  
    21    10    34 1   
    22    11    12 1   
    23    12    13 2   
    24    13    14 1   
    25    14    15 ar  
    26    14    16 ar  
    27    15    17 ar  
    28    15    37 1   
    29    16    18 ar  
    30    16    38 1   
    31    17    19 ar  
    32    17    39 1   
    33    18    19 ar  
    34    18    20 1   
    35    19    21 1   
    36    20    28 1   
    37    20    29 1   
    38    20    30 1   
    39    21    22 1   
    40    21    40 1   
    41    22    23 2   
    42    22    24 1   
    43    24    41 1   
    44    24    42 1   
    45    24    44 1   
@<TRIPOS>SUBSTRUCTURE
     1 33B         1 TEMP              0 ****  ****    0 ROOT
