@<TRIPOS>MOLECULE
33C
   52    57     1     0     0
SMALL
No Charge or Current Charge


@<TRIPOS>ATOM
      1 CAF          6.7860    -2.5740     0.9340 ca         1 33C      -0.163000
      2 CAH          5.3880    -2.5780     0.8330 ca         1 33C       0.353900
      3 CAI          5.2960     2.0560    -0.3840 ca         1 33C      -0.143000
      4 CAJ         -0.3310     1.9280    -0.7620 ca         1 33C      -0.062500
      5 CAD         -6.0900     1.4320     0.0260 c5         1 33C      -0.085900
      6 CAE         -5.8670     0.8140     1.4410 c5         1 33C      -0.085900
      7 CAL         -1.6500     1.4450    -0.7320 ca         1 33C      -0.105500
      8 CAN          7.4840    -1.3860     0.6750 ca         1 33C      -0.061000
      9 CAS          2.1730     1.6370    -0.5030 c          1 33C       0.622700
     10 CAO          7.4220     0.9650     0.0560 ca         1 33C      -0.129000
     11 CAP         -7.4660    -0.5230     0.2540 c5         1 33C      -0.088400
     12 CAW         -1.9150     0.1040    -0.4000 ca         1 33C      -0.022000
     13 CAV          0.7600     1.0790    -0.4610 ca         1 33C      -0.148600
     14 CBB         -6.2940    -0.6820     1.2490 c5         1 33C      -0.051700
     15 CBA         -6.6270     0.2200    -0.8120 c5         1 33C      -0.051700
     16 CAZ          5.3320    -0.3160     0.2380 ca         1 33C       0.230000
     17 CAY          6.7490    -0.2400     0.3220 ca         1 33C      -0.053000
     18 CAU         -3.7820    -1.1150     0.7050 c          1 33C       0.583000
     19 CAX          4.6040     0.8500    -0.1200 ca         1 33C       0.005000
     20 NAQ          4.6730    -1.4790     0.4940 nb         1 33C      -0.692000
     21 CAG          6.6950     2.1090    -0.2960 ca         1 33C      -0.071000
     22 NAR          3.1840     0.7380    -0.1940 ns         1 33C      -0.132000
     23 OAA          2.3810     2.8100    -0.7940 o          1 33C      -0.584100
     24 CAK          0.4870    -0.2720    -0.1310 ca         1 33C      -0.062500
     25 CAM         -0.8350    -0.7490    -0.1020 ca         1 33C      -0.105500
     26 NBC         -3.2720    -0.3800    -0.3740 n          1 33C      -0.230000
     27 CAT         -4.1350    -0.1910    -1.4610 c          1 33C       0.583000
     28 OAB         -3.8130     0.2570    -2.5530 o          1 33C      -0.485500
     29 CBD         -5.4780    -0.8280    -1.0610 c5         1 33C      -0.156200
     30 CBE         -5.2440    -1.4420     0.3520 c5         1 33C      -0.156200
     31 H1           7.3140    -3.4820     1.2100 ha         1 33C       0.125000
     32 H2           4.8190    -3.4860     1.0290 h4         1 33C       0.019100
     33 H3           4.7700     2.9640    -0.6600 ha         1 33C       0.152000
     34 H4          -0.1610     2.9710    -1.0200 ha         1 33C       0.131000
     35 H5          -6.8430     2.2280     0.0730 hc         1 33C       0.054200
     36 H6          -5.1890     1.9000    -0.3850 hc         1 33C       0.054200
     37 H7          -4.8450     0.9490     1.8120 hc         1 33C       0.054200
     38 H8          -6.5160     1.3050     2.1760 hc         1 33C       0.054200
     39 H9          -2.4680     2.1240    -0.9620 ha         1 33C       0.126500
     40 H10          8.5690    -1.3570     0.7470 ha         1 33C       0.121000
     41 H11          8.5070     1.0160     0.1220 ha         1 33C       0.118000
     42 H12         -7.8720    -1.4790    -0.0990 hc         1 33C       0.057200
     43 H13         -8.2980     0.0740     0.6490 hc         1 33C       0.057200
     44 H14         -6.5430    -1.1990     2.1840 hc         1 33C       0.082200
     45 H15         -7.1750     0.5110    -1.7170 hc         1 33C       0.082200
     46 H16          7.2170     3.0420    -0.5020 ha         1 33C       0.117000
     47 H17          2.8580    -0.1930     0.0250 hn         1 33C       0.187000
     48 H18          1.2840    -0.9720     0.1060 ha         1 33C       0.131000
     49 H19         -1.0140    -1.7930     0.1430 ha         1 33C       0.126500
     50 H20         -5.7720    -1.5580    -1.8240 hc         1 33C       0.092200
     51 H21         -5.3940    -2.5260     0.3990 hc         1 33C       0.092200
     52 OAC         -3.1460    -1.4920     1.6810 o          1 33C      -0.485500
@<TRIPOS>BOND
     1     1     2 ar  
     2     1     8 ar  
     3     1    31 1   
     4     2    20 ar  
     5     2    32 1   
     6     3    19 ar  
     7     3    21 ar  
     8     3    33 1   
     9     4     7 ar  
    10     4    13 ar  
    11     4    34 1   
    12     5     6 1   
    13     5    15 1   
    14     5    35 1   
    15     5    36 1   
    16     6    14 1   
    17     6    37 1   
    18     6    38 1   
    19     7    12 ar  
    20     7    39 1   
    21     8    17 ar  
    22     8    40 1   
    23     9    13 1   
    24     9    22 1   
    25     9    23 2   
    26    10    17 ar  
    27    10    21 ar  
    28    10    41 1   
    29    11    14 1   
    30    11    15 1   
    31    11    42 1   
    32    11    43 1   
    33    12    25 ar  
    34    12    26 1   
    35    13    24 ar  
    36    14    30 1   
    37    14    44 1   
    38    15    29 1   
    39    15    45 1   
    40    16    17 ar  
    41    16    19 ar  
    42    16    20 ar  
    43    18    26 1   
    44    18    30 1   
    45    18    52 2   
    46    19    22 1   
    47    21    46 1   
    48    22    47 1   
    49    24    25 ar  
    50    24    48 1   
    51    25    49 1   
    52    26    27 1   
    53    27    28 2   
    54    27    29 1   
    55    29    30 1   
    56    29    50 1   
    57    30    51 1   
@<TRIPOS>SUBSTRUCTURE
     1 33C         1 TEMP              0 ****  ****    0 ROOT
