@<TRIPOS>MOLECULE
33C
   52    57     1     0     0
SMALL
abcg2


@<TRIPOS>ATOM
      1 CAF          6.6490    -2.4970     1.0820 ca         1 33C      -0.163000
      2 CAH          5.2430    -2.4380     1.0290 ca         1 33C       0.353900
      3 CAI          5.2020     2.0060    -0.5180 ca         1 33C      -0.143000
      4 CAJ         -0.2660     1.9130    -0.3250 ca         1 33C      -0.062500
      5 CAD         -6.1060     1.4090    -0.0400 c5         1 33C      -0.085900
      6 CAE         -5.8820     0.8410     1.3860 c5         1 33C      -0.085900
      7 CAL         -1.5750     1.4680    -0.2810 ca         1 33C      -0.105500
      8 CAN          7.3660    -1.3920     0.7180 ca         1 33C      -0.061000
      9 CAS          2.1770     1.5550    -0.4980 c          1 33C       0.622700
     10 CAO          7.3500     0.9560    -0.0960 ca         1 33C      -0.129000
     11 CAP         -7.3690    -0.5840     0.2070 c5         1 33C      -0.088400
     12 CAW         -1.8430     0.1100    -0.3730 ca         1 33C      -0.022000
     13 CAV          0.7860     1.0060    -0.4360 ca         1 33C      -0.148600
     14 CBB         -6.2290    -0.6470     1.2330 c5         1 33C      -0.051700
     15 CBA         -6.5530     0.1810    -0.8450 c5         1 33C      -0.051700
     16 CAZ          5.2760    -0.2780     0.2800 ca         1 33C       0.230000
     17 CAY          6.6870    -0.2270     0.2980 ca         1 33C      -0.053000
     18 CAU         -3.7260    -1.0460     0.7230 c          1 33C       0.583000
     19 CAX          4.5280     0.8680    -0.1410 ca         1 33C       0.005000
     20 NAQ          4.5830    -1.3770     0.6450 nb         1 33C      -0.692000
     21 CAG          6.6120     2.0360    -0.4910 ca         1 33C      -0.071000
     22 NAR          3.1510     0.6920    -0.1250 ns         1 33C      -0.132000
     23 OAA          2.3840     2.7020    -0.8540 o          1 33C      -0.584100
     24 CAK          0.5020    -0.3550    -0.5280 ca         1 33C      -0.062500
     25 CAM         -0.8080    -0.8030    -0.5010 ca         1 33C      -0.105500
     26 NBC         -3.1820    -0.3490    -0.3480 n          1 33C      -0.230000
     27 CAT         -4.0620    -0.1740    -1.4090 c          1 33C       0.583000
     28 OAB         -3.7730     0.3850    -2.4350 o          1 33C      -0.485500
     29 CBD         -5.3740    -0.7970    -1.0250 c5         1 33C      -0.156200
     30 CBE         -5.1560    -1.3640     0.3880 c5         1 33C      -0.156200
     31 H1           7.1370    -3.4040     1.4080 ha         1 33C       0.125000
     32 H2           4.6560    -3.3030     1.3160 h4         1 33C       0.019100
     33 H3           4.6690     2.8850    -0.8380 ha         1 33C       0.152000
     34 H4          -0.0640     2.9730    -0.2620 ha         1 33C       0.131000
     35 H5          -6.8990     2.1570    -0.0410 hc         1 33C       0.054200
     36 H6          -5.2220     1.9030    -0.4510 hc         1 33C       0.054200
     37 H7          -4.8730     1.0170     1.7660 hc         1 33C       0.054200
     38 H8          -6.5620     1.3040     2.1020 hc         1 33C       0.054200
     39 H9          -2.3860     2.1780    -0.1750 ha         1 33C       0.126500
     40 H10          8.4490    -1.3960     0.7460 ha         1 33C       0.121000
     41 H11          8.4310     0.9940    -0.0820 ha         1 33C       0.118000
     42 H12         -7.7020    -1.5680    -0.1320 hc         1 33C       0.057200
     43 H13         -8.2360    -0.0260     0.5660 hc         1 33C       0.057200
     44 H14         -6.4480    -1.1530     2.1720 hc         1 33C       0.082200
     45 H15         -7.0600     0.4190    -1.7780 hc         1 33C       0.082200
     46 H16          7.1090     2.9480    -0.7960 ha         1 33C       0.117000
     47 H17          2.8880    -0.2160     0.2380 hn         1 33C       0.187000
     48 H18          1.2850    -1.0900    -0.6570 ha         1 33C       0.131000
     49 H19         -1.0200    -1.8590    -0.5970 ha         1 33C       0.126500
     50 H20         -5.6210    -1.5690    -1.7570 hc         1 33C       0.092200
     51 H21         -5.2930    -2.4470     0.4350 hc         1 33C       0.092200
     52 OAC         -3.1150    -1.3150     1.7250 o          1 33C      -0.485500
@<TRIPOS>BOND
     1     1     2 ar  
     2     1     8 ar  
     3     1    31 1   
     4     2    20 ar  
     5     2    32 1   
     6     3    19 ar  
     7     3    21 ar  
     8     3    33 1   
     9     4     7 ar  
    10     4    13 ar  
    11     4    34 1   
    12     5     6 1   
    13     5    15 1   
    14     5    35 1   
    15     5    36 1   
    16     6    14 1   
    17     6    37 1   
    18     6    38 1   
    19     7    12 ar  
    20     7    39 1   
    21     8    17 ar  
    22     8    40 1   
    23     9    13 1   
    24     9    22 1   
    25     9    23 2   
    26    10    17 ar  
    27    10    21 ar  
    28    10    41 1   
    29    11    14 1   
    30    11    15 1   
    31    11    42 1   
    32    11    43 1   
    33    12    25 ar  
    34    12    26 1   
    35    13    24 ar  
    36    14    30 1   
    37    14    44 1   
    38    15    29 1   
    39    15    45 1   
    40    16    17 ar  
    41    16    19 ar  
    42    16    20 ar  
    43    18    26 1   
    44    18    30 1   
    45    18    52 2   
    46    19    22 1   
    47    21    46 1   
    48    22    47 1   
    49    24    25 ar  
    50    24    48 1   
    51    25    49 1   
    52    26    27 1   
    53    27    28 2   
    54    27    29 1   
    55    29    30 1   
    56    29    50 1   
    57    30    51 1   
@<TRIPOS>SUBSTRUCTURE
     1 33C         1 TEMP              0 ****  ****    0 ROOT
