@<TRIPOS>MOLECULE
33D
   21    20     1     0     0
SMALL
No Charge or Current Charge


@<TRIPOS>ATOM
      1 C1          -1.6620    -0.3260     0.0200 c3         1 33D       0.163600
      2 O1          -2.8840     0.4200     0.0440 oh         1 33D      -0.665000
      3 C3           0.9610    -0.0050     0.0020 c3         1 33D      -0.044000
      4 C5           1.1800    -0.8990     1.2520 c3         1 33D      -0.084100
      5 C4           1.1560    -0.8560    -1.2820 c3         1 33D      -0.084100
      6 C2          -0.4590     0.6480     0.0260 c3         1 33D      -0.074400
      7 C6           2.0230     1.1280     0.0110 c3         1 33D      -0.084100
      8 HC1         -1.6110    -0.9840     0.8970 h1         1 33D       0.016700
      9 HC2         -1.6270    -0.9540    -0.8790 h1         1 33D       0.016700
     10 H1          -3.6180    -0.2350     0.0400 ho         1 33D       0.440000
     11 HC3         -0.5560     1.3170    -0.8390 hc         1 33D       0.051200
     12 HC4         -0.5400     1.2870     0.9150 hc         1 33D       0.051200
     13 H41          0.4810    -1.7200    -1.2980 hc         1 33D       0.032811
     14 H42          0.9660    -0.2580    -2.1820 hc         1 33D       0.032811
     15 H43          2.1820    -1.2390    -1.3430 hc         1 33D       0.032811
     16 H61          1.9100     1.7790    -0.8640 hc         1 33D       0.032811
     17 H62          1.9260     1.7490     0.9100 hc         1 33D       0.032811
     18 H63          3.0390     0.7160    -0.0050 hc         1 33D       0.032811
     19 H51          2.2070    -1.2840     1.2810 hc         1 33D       0.032811
     20 H52          1.0060    -0.3320     2.1750 hc         1 33D       0.032811
     21 H53          0.5050    -1.7630     1.2500 hc         1 33D       0.032811
@<TRIPOS>BOND
     1     1     2 1   
     2     1     6 1   
     3     1     8 1   
     4     1     9 1   
     5     2    10 1   
     6     3     4 1   
     7     3     5 1   
     8     3     6 1   
     9     3     7 1   
    10     4    19 1   
    11     4    20 1   
    12     4    21 1   
    13     5    13 1   
    14     5    14 1   
    15     5    15 1   
    16     6    11 1   
    17     6    12 1   
    18     7    16 1   
    19     7    17 1   
    20     7    18 1   
@<TRIPOS>SUBSTRUCTURE
     1 33D         1 TEMP              0 ****  ****    0 ROOT
