@<TRIPOS>MOLECULE
33D
   21    20     1     0     0
SMALL
bcc


@<TRIPOS>ATOM
      1 C1          -1.6270    -0.3300     0.0070 c3         1 33D       0.140400
      2 O1          -2.8200     0.4280     0.0700 oh         1 33D      -0.602800
      3 C3           0.9440    -0.0110     0.0030 c3         1 33D      -0.044000
      4 C5           1.1680    -0.8860     1.2390 c3         1 33D      -0.084100
      5 C4           1.1410    -0.8530    -1.2600 c3         1 33D      -0.084100
      6 C2          -0.4530     0.6330     0.0280 c3         1 33D      -0.074400
      7 C6           1.9790     1.1150     0.0080 c3         1 33D      -0.084100
      8 HC1         -1.5600    -1.0230     0.8540 h1         1 33D       0.016700
      9 HC2         -1.5980    -0.9390    -0.9040 h1         1 33D       0.016700
     10 H1          -3.5610    -0.1830     0.0440 ho         1 33D       0.401000
     11 HC3         -0.5420     1.3100    -0.8300 hc         1 33D       0.051200
     12 HC4         -0.5310     1.2590     0.9250 hc         1 33D       0.051200
     13 H41          0.4660    -1.7090    -1.2950 hc         1 33D       0.032811
     14 H42          0.9760    -0.2600    -2.1630 hc         1 33D       0.032811
     15 H43          2.1600    -1.2430    -1.3060 hc         1 33D       0.032811
     16 H61          1.8670     1.7600    -0.8660 hc         1 33D       0.032811
     17 H62          1.8780     1.7420     0.8970 hc         1 33D       0.032811
     18 H63          2.9940     0.7130    -0.0030 hc         1 33D       0.032811
     19 H51          2.1880    -1.2770     1.2530 hc         1 33D       0.032811
     20 H52          1.0230    -0.3160     2.1590 hc         1 33D       0.032811
     21 H53          0.4940    -1.7430     1.2680 hc         1 33D       0.032811
@<TRIPOS>BOND
     1     1     2 1   
     2     1     6 1   
     3     1     8 1   
     4     1     9 1   
     5     2    10 1   
     6     3     4 1   
     7     3     5 1   
     8     3     6 1   
     9     3     7 1   
    10     4    19 1   
    11     4    20 1   
    12     4    21 1   
    13     5    13 1   
    14     5    14 1   
    15     5    15 1   
    16     6    11 1   
    17     6    12 1   
    18     7    16 1   
    19     7    17 1   
    20     7    18 1   
@<TRIPOS>SUBSTRUCTURE
     1 33D         1 TEMP              0 ****  ****    0 ROOT
