@<TRIPOS>MOLECULE
33F
   78    81     1     0     0
SMALL
abcg2


@<TRIPOS>ATOM
      1 C1          -3.6050    -0.5950    -0.7260 ca         1 33F      -0.076500
      2 C2          -3.5150     1.0380    -2.4730 ca         1 33F      -0.076500
      3 C3          -4.7590    -0.0130    -0.2280 ca         1 33F      -0.106500
      4 C4          -4.6790     1.6280    -1.9970 ca         1 33F      -0.106500
      5 C5          -2.3990     4.0930    -0.0090 ca         1 33F      -0.120500
      6 C6          -0.4710     5.1380     1.0140 ca         1 33F      -0.120500
      7 C7          -2.0030     2.8640     0.4940 ca         1 33F       0.008000
      8 C8          -0.0820     3.9120     1.5250 ca         1 33F       0.008000
      9 C9           5.4880    -3.0040     1.6460 ca         1 33F      -0.034000
     10 C10          5.0280    -1.7300     1.4840 ca         1 33F      -0.178000
     11 C11         -2.9690    -0.0770    -1.8500 ca         1 33F      -0.105300
     12 C12         -5.2830     1.0950    -0.8730 ca         1 33F       0.090100
     13 C13         -1.6260     5.2100     0.2520 ca         1 33F       0.147100
     14 C14         -0.8430     2.7850     1.2460 ca         1 33F      -0.240500
     15 C15          4.8950    -4.0180     0.8860 ca         1 33F       0.189500
     16 C16          3.9880    -1.5230     0.5510 ca         1 33F       0.555900
     17 C18         -0.0290     0.1760    -0.9020 c          1 33F       0.592100
     18 C19          3.5390     0.8070     1.2080 c6         1 33F       0.201800
     19 C20          2.2800     0.8050     2.0580 c6         1 33F       0.180800
     20 C21          2.3800    -0.1300    -0.6360 c6         1 33F       0.210800
     21 C22          1.0470    -0.1490     0.1290 c6         1 33F       0.108500
     22 C24          4.2050    -8.4760     1.3450 c3         1 33F      -0.110100
     23 C25         -1.7190    -0.7320    -2.3880 c3         1 33F       0.151300
     24 C26          4.5850    -8.2880    -1.1450 c3         1 33F      -0.089400
     25 C27          4.9490    -7.7430     0.2340 c3         1 33F       0.115700
     26 C28         -6.4150     2.6720     0.4320 c3         1 33F       0.514000
     27 C29         -1.6570     6.8350    -1.4270 c3         1 33F       0.518000
     28 N30          3.9180    -3.7590     0.0440 nb         1 33F      -0.287000
     29 N31          3.4620    -2.5490    -0.1230 nb         1 33F      -0.409000
     30 N32          3.5030    -0.2830     0.2560 nh         1 33F      -0.749300
     31 N33          1.0960     0.8610     1.1890 n3         1 33F      -0.739500
     32 N34          4.6750    -6.3170     0.2720 ns         1 33F      -0.484900
     33 N35         -0.6870    -0.8840    -1.3870 ns         1 33F      -0.481900
     34 O36          6.3090    -5.7160     1.7270 o          1 33F      -0.611100
     35 O37         -0.1880     1.3120    -1.3110 o          1 33F      -0.588100
     36 O40         -6.4800     1.6350    -0.4080 os         1 33F      -0.402100
     37 O41         -2.0520     6.4470    -0.2060 os         1 33F      -0.407100
     38 F42         -5.9130     3.7710    -0.1410 f          1 33F      -0.109667
     39 F43         -7.6460     2.9480     0.8340 f          1 33F      -0.109667
     40 F44         -5.6640     2.4240     1.5060 f          1 33F      -0.109667
     41 F45         -2.0520     5.9950    -2.3850 f          1 33F      -0.106667
     42 F46         -2.1920     8.0210    -1.6620 f          1 33F      -0.106667
     43 F47         -0.3320     6.9410    -1.5280 f          1 33F      -0.106667
     44 S48         -0.3490     1.2300     1.9370 sy         1 33F       1.155600
     45 H1          -3.1980    -1.4630    -0.2230 ha         1 33F       0.126500
     46 H2          -3.0320     1.4580    -3.3460 ha         1 33F       0.126500
     47 H3          -5.2550    -0.4280     0.6400 ha         1 33F       0.138000
     48 H4          -5.1060     2.4820    -2.5070 ha         1 33F       0.138000
     49 H5          -3.3070     4.1740    -0.5890 ha         1 33F       0.139000
     50 H6           0.1070     6.0270     1.2280 ha         1 33F       0.139000
     51 H7          -2.5910     1.9820     0.2830 ha         1 33F       0.136500
     52 H8           0.8140     3.8550     2.1290 ha         1 33F       0.136500
     53 H9           6.2900    -3.2210     2.3370 ha         1 33F       0.156000
     54 H10          5.4650    -0.9200     2.0480 ha         1 33F       0.135000
     55 H19          3.6150     1.7440     0.6520 h1         1 33F       0.071700
     56 H19A         4.4080     0.7520     1.8570 h1         1 33F       0.071700
     57 H20          2.2670    -0.0870     2.6930 h1         1 33F       0.066200
     58 H20A         2.3020     1.6780     2.7060 h1         1 33F       0.066200
     59 H21          2.3730    -0.9140    -1.3880 h1         1 33F       0.089200
     60 H21A         2.4830     0.8310    -1.1440 h1         1 33F       0.089200
     61 H22          0.8980    -1.1500     0.5490 h1         1 33F       0.068700
     62 H23          5.1060    -8.1120    -3.2380 hc         1 33F       0.037033
     63 H23A         5.2220    -6.5940    -2.3590 hc         1 33F       0.037033
     64 H23B         6.4560    -7.8310    -2.1420 hc         1 33F       0.037033
     65 H24A         4.4960    -8.1030     2.3270 hc         1 33F       0.042700
     66 H24B         3.1260    -8.3520     1.2380 hc         1 33F       0.042700
     67 H25         -1.9520    -1.7280    -2.7620 h1         1 33F       0.064200
     68 H25A        -1.3340    -0.1580    -3.2310 h1         1 33F       0.064200
     69 H26          3.5120    -8.1460    -1.3140 hc         1 33F       0.044700
     70 H26A         4.7460    -9.3680    -1.1290 hc         1 33F       0.044700
     71 H27          6.0240    -7.8720     0.3840 h1         1 33F       0.074700
     72 HN34         3.8850    -5.9630    -0.2480 hn         1 33F       0.336500
     73 HN35        -0.5810    -1.7820    -0.9450 hn         1 33F       0.328500
     74 C17          5.3600    -5.4360     1.0050 c          1 33F       0.515600
     75 O38         -0.0710     1.4680     3.3450 o          1 33F      -0.545000
     76 O39         -1.3400     0.2350     1.5580 o          1 33F      -0.545000
     77 H24          4.4260    -9.5440     1.3120 hc         1 33F       0.042700
     78 C23          5.3850    -7.6690    -2.2820 c3         1 33F      -0.089100
@<TRIPOS>BOND
     1     1     3 ar  
     2     1    11 ar  
     3     1    45 1   
     4     2     4 ar  
     5     2    11 ar  
     6     2    46 1   
     7     3    12 ar  
     8     3    47 1   
     9     4    12 ar  
    10     4    48 1   
    11     5     7 ar  
    12     5    13 ar  
    13     5    49 1   
    14     6     8 ar  
    15     6    13 ar  
    16     6    50 1   
    17     7    14 ar  
    18     7    51 1   
    19     8    14 ar  
    20     8    52 1   
    21     9    10 ar  
    22     9    15 ar  
    23     9    53 1   
    24    10    16 ar  
    25    10    54 1   
    26    11    23 1   
    27    12    36 1   
    28    13    37 1   
    29    14    44 1   
    30    15    28 ar  
    31    15    74 1   
    32    16    29 ar  
    33    16    30 1   
    34    17    21 1   
    35    17    33 1   
    36    17    35 2   
    37    18    19 1   
    38    18    30 1   
    39    18    55 1   
    40    18    56 1   
    41    19    31 1   
    42    19    57 1   
    43    19    58 1   
    44    20    21 1   
    45    20    30 1   
    46    20    59 1   
    47    20    60 1   
    48    21    31 1   
    49    21    61 1   
    50    22    25 1   
    51    22    65 1   
    52    22    66 1   
    53    22    77 1   
    54    23    33 1   
    55    23    67 1   
    56    23    68 1   
    57    24    25 1   
    58    24    69 1   
    59    24    70 1   
    60    24    78 1   
    61    25    32 1   
    62    25    71 1   
    63    26    36 1   
    64    26    38 1   
    65    26    39 1   
    66    26    40 1   
    67    27    37 1   
    68    27    41 1   
    69    27    42 1   
    70    27    43 1   
    71    28    29 ar  
    72    31    44 1   
    73    32    72 1   
    74    32    74 1   
    75    33    73 1   
    76    34    74 2   
    77    44    75 2   
    78    44    76 2   
    79    62    78 1   
    80    63    78 1   
    81    64    78 1   
@<TRIPOS>SUBSTRUCTURE
     1 33F         1 TEMP              0 ****  ****    0 ROOT
