@<TRIPOS>MOLECULE
33F
   78    81     1     0     0
SMALL
No Charge or Current Charge


@<TRIPOS>ATOM
      1 C1          -2.9890    -0.8380    -0.9080 ca         1 33F      -0.076500
      2 C2          -3.2380     1.0510    -2.4160 ca         1 33F      -0.076500
      3 C3          -4.2130    -0.5100    -0.3000 ca         1 33F      -0.106500
      4 C4          -4.4660     1.3760    -1.8120 ca         1 33F      -0.106500
      5 C5          -2.7360     3.7960     0.2270 ca         1 33F      -0.120500
      6 C6          -0.7910     5.1950     0.6450 ca         1 33F      -0.120500
      7 C7          -2.0920     2.7060     0.8350 ca         1 33F       0.008000
      8 C8          -0.1440     4.1070     1.2570 ca         1 33F       0.008000
      9 C9           5.8810    -3.1460     1.2880 ca         1 33F      -0.034000
     10 C10          5.5620    -1.7800     1.1510 ca         1 33F      -0.178000
     11 C11         -2.4930    -0.0580    -1.9700 ca         1 33F      -0.105300
     12 C12         -4.9610     0.5930    -0.7430 ca         1 33F       0.090100
     13 C13         -2.0960     5.0420     0.1240 ca         1 33F       0.147100
     14 C14         -0.7910     2.8610     1.3510 ca         1 33F      -0.240500
     15 C15          4.9900    -4.1060     0.7600 ca         1 33F       0.189500
     16 C16          4.3660    -1.4340     0.4970 ca         1 33F       0.555900
     17 C18          0.4510     0.7060    -1.0480 c          1 33F       0.592100
     18 C19          4.0520     0.8840     1.4450 c6         1 33F       0.201800
     19 C20          2.6860     0.9910     2.1850 c6         1 33F       0.180800
     20 C21          2.8880     0.2880    -0.6400 c6         1 33F       0.210800
     21 C22          1.5080     0.4360     0.0720 c6         1 33F       0.108500
     22 C24          3.8660    -8.4750     1.6530 c3         1 33F      -0.110100
     23 C25         -1.1610    -0.4050    -2.6250 c3         1 33F       0.151300
     24 C26          3.7320    -8.5070    -0.9060 c3         1 33F      -0.089400
     25 C27          4.4360    -7.9100     0.3360 c3         1 33F       0.115700
     26 C28         -7.0440     1.9350    -0.4370 c3         1 33F       0.514000
     27 C29         -2.2850     7.3950    -0.6810 c3         1 33F       0.518000
     28 N30          3.8490    -3.7060     0.1280 nb         1 33F      -0.287000
     29 N31          3.5490    -2.3960     0.0010 nb         1 33F      -0.409000
     30 N32          3.9730    -0.0870     0.3160 nh         1 33F      -0.749300
     31 N33          1.5370     1.3560     1.2910 n3         1 33F      -0.739500
     32 N34          4.3540    -6.4480     0.3320 ns         1 33F      -0.484900
     33 N35         -0.0640    -0.4210    -1.6570 ns         1 33F      -0.481900
     34 O36          6.3010    -6.0240     1.4320 o          1 33F      -0.611100
     35 O37          0.0220     1.8200    -1.3140 o          1 33F      -0.588100
     36 O40         -6.1550     0.8520    -0.0940 os         1 33F      -0.402100
     37 O41         -2.7990     6.0620    -0.4900 os         1 33F      -0.407100
     38 F42         -7.4920     1.8420    -1.7100 f          1 33F      -0.109667
     39 F43         -8.1330     1.9270     0.3640 f          1 33F      -0.109667
     40 F44         -6.4560     3.1440    -0.2880 f          1 33F      -0.109667
     41 F45         -1.1650     7.4050    -1.4400 f          1 33F      -0.106667
     42 F46         -3.1940     8.1700    -1.3130 f          1 33F      -0.106667
     43 F47         -1.9990     8.0030     0.4930 f          1 33F      -0.106667
     44 S48          0.0470     1.4820     2.1390 sy         1 33F       1.155600
     45 H1          -2.4250    -1.6960    -0.5480 ha         1 33F       0.126500
     46 H2          -2.8650     1.6660    -3.2320 ha         1 33F       0.126500
     47 H3          -4.5870    -1.1160     0.5220 ha         1 33F       0.138000
     48 H4          -5.0100     2.2370    -2.1870 ha         1 33F       0.138000
     49 H5          -3.7390     3.6760    -0.1700 ha         1 33F       0.139000
     50 H6          -0.2600     6.1390     0.5870 ha         1 33F       0.139000
     51 H7          -2.6050     1.7480     0.8990 ha         1 33F       0.136500
     52 H8           0.8630     4.2310     1.6530 ha         1 33F       0.136500
     53 H9           6.7970    -3.4540     1.7870 ha         1 33F       0.156000
     54 H10          6.2330    -1.0160     1.5280 ha         1 33F       0.135000
     55 H19          4.3310     1.8780     1.0650 h1         1 33F       0.071700
     56 H19A         4.8260     0.6000     2.1710 h1         1 33F       0.071700
     57 H20          2.4900     0.0270     2.6780 h1         1 33F       0.066200
     58 H20A         2.8090     1.7380     2.9830 h1         1 33F       0.066200
     59 H21          2.8120    -0.4380    -1.4640 h1         1 33F       0.089200
     60 H21A         3.1370     1.2480    -1.1160 h1         1 33F       0.089200
     61 H22          1.2630    -0.5730     0.4340 h1         1 33F       0.068700
     62 H23          3.8200    -8.5380    -3.0870 hc         1 33F       0.037033
     63 H23A         4.2100    -6.9570    -2.3830 hc         1 33F       0.037033
     64 H23B         5.3960    -8.2810    -2.3090 hc         1 33F       0.037033
     65 H24A         4.4100    -8.0710     2.5150 hc         1 33F       0.042700
     66 H24B         2.8060    -8.2160     1.7620 hc         1 33F       0.042700
     67 H25         -1.2350    -1.3960    -3.0920 h1         1 33F       0.064200
     68 H25A        -0.9260     0.3200    -3.4170 h1         1 33F       0.064200
     69 H26          2.6650    -8.2540    -0.8800 hc         1 33F       0.044700
     70 H26A         3.7980    -9.6010    -0.8600 hc         1 33F       0.044700
     71 H27          5.4960    -8.1940     0.2820 h1         1 33F       0.074700
     72 HN34         3.5510    -6.0090    -0.1040 hn         1 33F       0.336500
     73 HN35         0.3050    -1.3190    -1.3640 hn         1 33F       0.328500
     74 C17          5.2920    -5.5940     0.8830 c          1 33F       0.515600
     75 O38          0.3930     1.9160     3.4970 o          1 33F      -0.545000
     76 O39         -0.6910     0.2330     1.9230 o          1 33F      -0.545000
     77 H24          3.9590    -9.5670     1.6760 hc         1 33F       0.042700
     78 C23          4.3280    -8.0390    -2.2530 c3         1 33F      -0.089100
@<TRIPOS>BOND
     1     1     3 ar  
     2     1    11 ar  
     3     1    45 1   
     4     2     4 ar  
     5     2    11 ar  
     6     2    46 1   
     7     3    12 ar  
     8     3    47 1   
     9     4    12 ar  
    10     4    48 1   
    11     5     7 ar  
    12     5    13 ar  
    13     5    49 1   
    14     6     8 ar  
    15     6    13 ar  
    16     6    50 1   
    17     7    14 ar  
    18     7    51 1   
    19     8    14 ar  
    20     8    52 1   
    21     9    10 ar  
    22     9    15 ar  
    23     9    53 1   
    24    10    16 ar  
    25    10    54 1   
    26    11    23 1   
    27    12    36 1   
    28    13    37 1   
    29    14    44 1   
    30    15    28 ar  
    31    15    74 1   
    32    16    29 ar  
    33    16    30 1   
    34    17    21 1   
    35    17    33 1   
    36    17    35 2   
    37    18    19 1   
    38    18    30 1   
    39    18    55 1   
    40    18    56 1   
    41    19    31 1   
    42    19    57 1   
    43    19    58 1   
    44    20    21 1   
    45    20    30 1   
    46    20    59 1   
    47    20    60 1   
    48    21    31 1   
    49    21    61 1   
    50    22    25 1   
    51    22    65 1   
    52    22    66 1   
    53    22    77 1   
    54    23    33 1   
    55    23    67 1   
    56    23    68 1   
    57    24    25 1   
    58    24    69 1   
    59    24    70 1   
    60    24    78 1   
    61    25    32 1   
    62    25    71 1   
    63    26    36 1   
    64    26    38 1   
    65    26    39 1   
    66    26    40 1   
    67    27    37 1   
    68    27    41 1   
    69    27    42 1   
    70    27    43 1   
    71    28    29 ar  
    72    31    44 1   
    73    32    72 1   
    74    32    74 1   
    75    33    73 1   
    76    34    74 2   
    77    44    75 2   
    78    44    76 2   
    79    62    78 1   
    80    63    78 1   
    81    64    78 1   
@<TRIPOS>SUBSTRUCTURE
     1 33F         1 TEMP              0 ****  ****    0 ROOT
