@<TRIPOS>MOLECULE
33G
   52    56     1     0     0
SMALL
No Charge or Current Charge


@<TRIPOS>ATOM
      1 F32         -6.5260     0.3220     1.7700 f          1 33G      -0.178000
      2 C30         -5.4840     0.7000     0.9990 ca         1 33G       0.172000
      3 C29         -5.5420     1.9130     0.2970 ca         1 33G      -0.147000
      4 C28         -4.4550     2.3070    -0.5020 ca         1 33G      -0.084000
      5 C27         -3.3180     1.4850    -0.5930 ca         1 33G      -0.114000
      6 C31         -4.3500    -0.1220     0.9080 ca         1 33G      -0.145000
      7 C26         -3.2410     0.2540     0.1090 cp         1 33G      -0.008000
      8 C22         -2.0280    -0.6180     0.0110 cp         1 33G      -0.044000
      9 C21         -2.1400    -2.0280     0.0090 ca         1 33G      -0.060000
     10 C20         -0.9980    -2.8440    -0.0810 ca         1 33G      -0.024000
     11 C24         -1.1370    -4.2750    -0.0800 cg         1 33G       0.323000
     12 N25         -1.2400    -5.4380    -0.0750 n1         1 33G      -0.452000
     13 C19          0.2780    -2.2610    -0.1730 ca         1 33G      -0.065000
     14 C23         -0.7320    -0.0550    -0.0820 ca         1 33G      -0.061000
     15 C18          0.4260    -0.8550    -0.1780 ca         1 33G      -0.066300
     16 C4           1.8030    -0.1450    -0.2570 c6         1 33G       0.209800
     17 C3           1.8660     0.8020    -1.4910 ce         1 33G      -0.257900
     18 C8           1.3020     0.3560    -2.7300 cg         1 33G       0.310700
     19 N9           0.8250     0.0390    -3.7460 n1         1 33G      -0.502000
     20 C2           2.3510     2.0620    -1.3790 c2         1 33G       0.402100
     21 N7           2.4470     2.9910    -2.3860 nv         1 33G      -0.960000
     22 C14          3.0450    -1.1300    -0.3310 cy         1 33G      -0.073700
     23 C17          3.3860    -1.9070    -1.6610 cy         1 33G      -0.084900
     24 C16          4.8680    -1.8410    -1.1560 cy         1 33G      -0.093400
     25 C15          4.4620    -0.4720    -0.5110 cy         1 33G      -0.084900
     26 C5           1.9880     0.6990     0.9830 cc         1 33G      -0.241300
     27 C10          1.8110     0.4180     2.3080 cd         1 33G      -0.086300
     28 C13          1.3070    -0.8280     2.9920 c3         1 33G      -0.036800
     29 N11          2.2310     1.5870     2.9780 na         1 33G      -0.003200
     30 N12          2.6680     2.5900     2.1010 nd         1 33G      -0.508800
     31 C6           2.4810     1.9940     0.9480 cc         1 33G       0.472300
     32 O1           2.7710     2.6260    -0.2180 os         1 33G      -0.332400
     33 H1          -6.4240     2.5430     0.3730 ha         1 33G       0.133000
     34 H2          -4.4950     3.2450    -1.0520 ha         1 33G       0.119000
     35 H3          -2.4930     1.8010    -1.2270 ha         1 33G       0.123000
     36 H4          -4.3290    -1.0480     1.4740 ha         1 33G       0.133000
     37 H5          -3.1230    -2.4900     0.0660 ha         1 33G       0.130000
     38 H6           1.1420    -2.9160    -0.2330 ha         1 33G       0.130000
     39 H7          -0.6230     1.0260    -0.0630 ha         1 33G       0.125000
     40 H10          1.8260     2.8570    -3.1800 hn         1 33G       0.505000
     41 H11          2.5540     3.9550    -2.0840 hn         1 33G       0.505000
     42 H13          3.0130    -1.7870     0.5470 hc         1 33G       0.048700
     43 H14          2.9640    -2.9120    -1.7580 hc         1 33G       0.054200
     44 H15          3.2440    -1.3820    -2.6090 hc         1 33G       0.054200
     45 H16          5.1440    -2.6230    -0.4370 hc         1 33G       0.048700
     46 H17          5.6380    -1.7950    -1.9330 hc         1 33G       0.048700
     47 H18          4.5200     0.3770    -1.2020 hc         1 33G       0.054200
     48 H19          4.9830    -0.2030     0.4130 hc         1 33G       0.054200
     49 H20          1.8480    -1.7170     2.6480 hc         1 33G       0.059367
     50 H21          1.4290    -0.7670     4.0800 hc         1 33G       0.059367
     51 H22          0.2410    -0.9840     2.7850 hc         1 33G       0.059367
     52 H23          2.2390     1.7260     3.9880 hn         1 33G       0.380000
@<TRIPOS>BOND
     1     1     2 1   
     2     2     3 ar  
     3     2     6 ar  
     4     3     4 ar  
     5     3    33 1   
     6     4     5 ar  
     7     4    34 1   
     8     5     7 ar  
     9     5    35 1   
    10     6     7 ar  
    11     6    36 1   
    12     7     8 1   
    13     8     9 ar  
    14     8    14 ar  
    15     9    10 ar  
    16     9    37 1   
    17    10    11 1   
    18    10    13 ar  
    19    11    12 3   
    20    13    15 ar  
    21    13    38 1   
    22    14    15 ar  
    23    14    39 1   
    24    15    16 1   
    25    16    17 1   
    26    16    22 1   
    27    16    26 1   
    28    17    18 1   
    29    17    20 2   
    30    18    19 3   
    31    20    21 1   
    32    20    32 1   
    33    21    40 1   
    34    21    41 1   
    35    22    23 1   
    36    22    25 1   
    37    22    42 1   
    38    23    24 1   
    39    23    43 1   
    40    23    44 1   
    41    24    25 1   
    42    24    45 1   
    43    24    46 1   
    44    25    47 1   
    45    25    48 1   
    46    26    27 2   
    47    26    31 1   
    48    27    28 1   
    49    27    29 1   
    50    28    49 1   
    51    28    50 1   
    52    28    51 1   
    53    29    30 1   
    54    29    52 1   
    55    30    31 2   
    56    31    32 1   
@<TRIPOS>SUBSTRUCTURE
     1 33G         1 TEMP              0 ****  ****    0 ROOT
