@<TRIPOS>MOLECULE
33G
   52    56     1     0     0
SMALL
abcg2


@<TRIPOS>ATOM
      1 F32         -6.4550     0.4430     1.5500 f          1 33G      -0.178000
      2 C30         -5.4050     0.7560     0.7750 ca         1 33G       0.172000
      3 C29         -5.4720     1.8890    -0.0130 ca         1 33G      -0.147000
      4 C28         -4.3730     2.2000    -0.8010 ca         1 33G      -0.084000
      5 C27         -3.2450     1.3940    -0.7940 ca         1 33G      -0.114000
      6 C31         -4.2960    -0.0650     0.8040 ca         1 33G      -0.145000
      7 C26         -3.1950     0.2540     0.0090 cp         1 33G      -0.008000
      8 C22         -1.9980    -0.6100     0.0130 cp         1 33G      -0.044000
      9 C21         -2.1180    -1.9940     0.1010 ca         1 33G      -0.060000
     10 C20         -0.9730    -2.7790     0.0840 ca         1 33G      -0.024000
     11 C24         -1.0960    -4.2000     0.1670 cg         1 33G       0.323000
     12 N25         -1.1920    -5.3460     0.2340 n1         1 33G      -0.452000
     13 C19          0.2980    -2.2110    -0.0250 ca         1 33G      -0.065000
     14 C23         -0.7260    -0.0560    -0.0860 ca         1 33G      -0.061000
     15 C18          0.4290    -0.8350    -0.1130 ca         1 33G      -0.066300
     16 C4           1.7840    -0.1350    -0.1970 c6         1 33G       0.209800
     17 C3           1.7400     0.9060    -1.3130 ce         1 33G      -0.257900
     18 C8           1.1790     0.5440    -2.5500 cg         1 33G       0.310700
     19 N9           0.6980     0.2580    -3.5640 n1         1 33G      -0.502000
     20 C2           2.2020     2.1960    -1.2020 c2         1 33G       0.402100
     21 N7           2.3160     3.0730    -2.2050 nv         1 33G      -0.960000
     22 C14          2.9520    -1.1210    -0.3710 cy         1 33G      -0.073700
     23 C17          3.1620    -1.9430    -1.6600 cy         1 33G      -0.084900
     24 C16          4.6780    -1.7520    -1.4680 cy         1 33G      -0.093400
     25 C15          4.3730    -0.5570    -0.5440 cy         1 33G      -0.084900
     26 C5           2.0210     0.6420     1.0620 cc         1 33G      -0.241300
     27 C10          1.9670     0.3240     2.4080 cd         1 33G      -0.086300
     28 C13          1.5980    -0.9290     3.1150 c3         1 33G      -0.036800
     29 N11          2.3410     1.4420     3.0550 na         1 33G      -0.003200
     30 N12          2.6350     2.4690     2.2530 nd         1 33G      -0.508800
     31 C6           2.4390     1.9680     1.0620 cc         1 33G       0.472300
     32 O1           2.6330     2.7220    -0.0460 os         1 33G      -0.332400
     33 H1          -6.3570     2.5110    -0.0130 ha         1 33G       0.133000
     34 H2          -4.4020     3.0780    -1.4330 ha         1 33G       0.119000
     35 H3          -2.4100     1.6440    -1.4370 ha         1 33G       0.123000
     36 H4          -4.2840    -0.9300     1.4550 ha         1 33G       0.133000
     37 H5          -3.0910    -2.4630     0.1620 ha         1 33G       0.130000
     38 H6           1.1590    -2.8640    -0.0340 ha         1 33G       0.130000
     39 H7          -0.6230     1.0220    -0.1280 ha         1 33G       0.125000
     40 H10          1.9840     2.8320    -3.1240 hn         1 33G       0.505000
     41 H11          2.3510     4.0580    -1.9960 hn         1 33G       0.505000
     42 H13          2.9600    -1.7990     0.4890 hc         1 33G       0.048700
     43 H14          2.7760    -2.9620    -1.6790 hc         1 33G       0.054200
     44 H15          2.8060    -1.4240    -2.5500 hc         1 33G       0.054200
     45 H16          5.1210    -2.5840    -0.9190 hc         1 33G       0.048700
     46 H17          5.2780    -1.5600    -2.3560 hc         1 33G       0.048700
     47 H18          4.3730     0.3790    -1.1050 hc         1 33G       0.054200
     48 H19          4.9790    -0.4330     0.3530 hc         1 33G       0.054200
     49 H20          2.3360    -1.7120     2.9440 hc         1 33G       0.059367
     50 H21          1.5280    -0.7690     4.1900 hc         1 33G       0.059367
     51 H22          0.6340    -1.3020     2.7670 hc         1 33G       0.059367
     52 H23          2.4050     1.5640     4.0530 hn         1 33G       0.380000
@<TRIPOS>BOND
     1     1     2 1   
     2     2     3 ar  
     3     2     6 ar  
     4     3     4 ar  
     5     3    33 1   
     6     4     5 ar  
     7     4    34 1   
     8     5     7 ar  
     9     5    35 1   
    10     6     7 ar  
    11     6    36 1   
    12     7     8 1   
    13     8     9 ar  
    14     8    14 ar  
    15     9    10 ar  
    16     9    37 1   
    17    10    11 1   
    18    10    13 ar  
    19    11    12 3   
    20    13    15 ar  
    21    13    38 1   
    22    14    15 ar  
    23    14    39 1   
    24    15    16 1   
    25    16    17 1   
    26    16    22 1   
    27    16    26 1   
    28    17    18 1   
    29    17    20 2   
    30    18    19 3   
    31    20    21 1   
    32    20    32 1   
    33    21    40 1   
    34    21    41 1   
    35    22    23 1   
    36    22    25 1   
    37    22    42 1   
    38    23    24 1   
    39    23    43 1   
    40    23    44 1   
    41    24    25 1   
    42    24    45 1   
    43    24    46 1   
    44    25    47 1   
    45    25    48 1   
    46    26    27 2   
    47    26    31 1   
    48    27    28 1   
    49    27    29 1   
    50    28    49 1   
    51    28    50 1   
    52    28    51 1   
    53    29    30 1   
    54    29    52 1   
    55    30    31 2   
    56    31    32 1   
@<TRIPOS>SUBSTRUCTURE
     1 33G         1 TEMP              0 ****  ****    0 ROOT
