@<TRIPOS>MOLECULE
33H
   63    65     1     0     0
SMALL
bcc


@<TRIPOS>ATOM
      1 C1           0.3890    -0.8430    -0.3230 cc         1 33H      -0.026400
      2 C2          -1.6240    -0.9840     0.9060 c          1 33H       0.691500
      3 C3          -3.1350    -0.7800     1.0020 c6         1 33H       0.077100
      4 O1          -3.6890    -0.1070    -0.0960 os         1 33H      -0.413600
      5 O2          -1.0200    -1.4780     1.8480 o          1 33H      -0.643500
      6 O3          -0.8720    -3.2150    -1.6530 o          1 33H      -0.809800
      7 C11         -1.8470     2.3060    -0.6520 c6         1 33H      -0.068400
      8 C12         -3.4850    -0.0190     2.2760 c3         1 33H      -0.107400
      9 C13          1.3330     0.0590     0.2250 cc         1 33H      -0.108000
     10 C14          2.6260    -0.3390     0.0060 cd         1 33H      -0.045100
     11 C15          0.9610    -1.9180    -0.9510 cd         1 33H      -0.074700
     12 C16          0.3660    -3.1290    -1.6240 c          1 33H       0.948200
     13 C17          3.8170     0.2970     0.4140 ch         1 33H      -0.037000
     14 C18          4.8500     0.8150     0.7620 c1         1 33H      -0.194100
     15 C19          6.1050     1.4300     1.2020 c3         1 33H       0.055100
     16 C20          7.2060     0.3610     1.1960 c3         1 33H      -0.078433
     17 C21          6.4800     2.5690     0.2450 c3         1 33H      -0.078433
     18 C22          5.9220     1.9780     2.6230 c3         1 33H      -0.078433
     19 C23         -4.9260    -0.1870     2.7510 c3         1 33H       0.149100
     20 C24         -5.1600     0.6180     4.0230 c3         1 33H      -0.124100
     21 N1          -1.0040    -0.6270    -0.2350 n          1 33H      -0.337000
     22 C4          -3.1520    -0.5420    -1.3200 c6         1 33H       0.119400
     23 C5          -1.6920    -0.1590    -1.4400 c6         1 33H       0.103700
     24 C6          -1.3830     1.3180    -1.7210 c6         1 33H      -0.072700
     25 C7          -1.8980     1.7440    -3.0960 c6         1 33H      -0.068400
     26 C8          -1.4490     3.1610    -3.4420 c6         1 33H      -0.073900
     27 C9          -1.8720     4.1550    -2.3660 c6         1 33H      -0.072400
     28 C10         -1.3810     3.7210    -0.9890 c6         1 33H      -0.073900
     29 S1           2.6710    -1.8240    -0.8800 ss         1 33H      -0.001800
     30 O4           1.2080    -3.9280    -2.0770 o          1 33H      -0.809800
     31 O5          -5.8850     0.1250     1.7610 oh         1 33H      -0.593800
     32 H1          -3.5480    -1.8020     1.0700 h1         1 33H       0.067700
     33 H2          -2.9370     2.2960    -0.5760 hc         1 33H       0.042200
     34 H3          -1.4650     2.0130     0.3300 hc         1 33H       0.042200
     35 H4          -2.8360    -0.3670     3.0800 hc         1 33H       0.061700
     36 H5          -3.2540     1.0430     2.1270 hc         1 33H       0.061700
     37 H6           1.0650     0.9620     0.7560 ha         1 33H       0.138000
     38 H7           7.3520    -0.0510     0.1970 hc         1 33H       0.033144
     39 H8           8.1500     0.7990     1.5230 hc         1 33H       0.033144
     40 H9           6.9610    -0.4600     1.8710 hc         1 33H       0.033144
     41 H10          5.7110     3.3420     0.2270 hc         1 33H       0.033144
     42 H11          7.4170     3.0290     0.5660 hc         1 33H       0.033144
     43 H12          6.6170     2.2000    -0.7720 hc         1 33H       0.033144
     44 H13          5.6530     1.1840     3.3200 hc         1 33H       0.033144
     45 H14          6.8530     2.4310     2.9680 hc         1 33H       0.033144
     46 H15          5.1430     2.7400     2.6570 hc         1 33H       0.033144
     47 H16         -5.0840    -1.2470     2.9760 h1         1 33H       0.067700
     48 H17         -4.9970     1.6840     3.8480 hc         1 33H       0.034700
     49 H18         -6.1790     0.4850     4.3860 hc         1 33H       0.034700
     50 H19         -4.4800     0.3060     4.8170 hc         1 33H       0.034700
     51 H20         -3.2400    -1.6310    -1.4220 h1         1 33H       0.066200
     52 H21         -3.7400    -0.0890    -2.1190 h1         1 33H       0.066200
     53 H22         -1.2940    -0.7400    -2.2770 h1         1 33H       0.093700
     54 H23         -0.2860     1.3850    -1.7650 hc         1 33H       0.060700
     55 H24         -1.5510     1.0420    -3.8610 hc         1 33H       0.042200
     56 H25         -2.9930     1.7070    -3.1120 hc         1 33H       0.042200
     57 H26         -0.3590     3.1800    -3.5470 hc         1 33H       0.032950
     58 H27         -1.8580     3.4550    -4.4110 hc         1 33H       0.032950
     59 H28         -1.4970     5.1530    -2.6060 hc         1 33H       0.028200
     60 H29         -2.9650     4.2290    -2.3530 hc         1 33H       0.028200
     61 H30         -1.7320     4.4200    -0.2250 hc         1 33H       0.032950
     62 H31         -0.2860     3.7600    -0.9650 hc         1 33H       0.032950
     63 H33         -5.6680     0.9850     1.3880 ho         1 33H       0.403000
@<TRIPOS>BOND
     1     1     9 1   
     2     1    11 2   
     3     1    21 1   
     4     2     3 1   
     5     2     5 2   
     6     2    21 1   
     7     3     4 1   
     8     3     8 1   
     9     3    32 1   
    10     4    22 1   
    11     6    12 1   
    12     7    24 1   
    13     7    28 1   
    14     7    33 1   
    15     7    34 1   
    16     8    19 1   
    17     8    35 1   
    18     8    36 1   
    19     9    10 2   
    20     9    37 1   
    21    10    13 1   
    22    10    29 1   
    23    11    12 1   
    24    11    29 1   
    25    12    30 1   
    26    13    14 3   
    27    14    15 1   
    28    15    16 1   
    29    15    17 1   
    30    15    18 1   
    31    16    38 1   
    32    16    39 1   
    33    16    40 1   
    34    17    41 1   
    35    17    42 1   
    36    17    43 1   
    37    18    44 1   
    38    18    45 1   
    39    18    46 1   
    40    19    20 1   
    41    19    31 1   
    42    19    47 1   
    43    20    48 1   
    44    20    49 1   
    45    20    50 1   
    46    21    23 1   
    47    22    23 1   
    48    22    51 1   
    49    22    52 1   
    50    23    24 1   
    51    23    53 1   
    52    24    25 1   
    53    24    54 1   
    54    25    26 1   
    55    25    55 1   
    56    25    56 1   
    57    26    27 1   
    58    26    57 1   
    59    26    58 1   
    60    27    28 1   
    61    27    59 1   
    62    27    60 1   
    63    28    61 1   
    64    28    62 1   
    65    31    63 1   
@<TRIPOS>SUBSTRUCTURE
     1 33H         1 TEMP              0 ****  ****    0 ROOT
