@<TRIPOS>MOLECULE
33H
   63    65     1     0     0
SMALL
No Charge or Current Charge


@<TRIPOS>ATOM
      1 C1           0.4080    -0.8860    -0.2630 cc         1 33H      -0.026400
      2 C2          -1.5370    -0.4870     1.1860 c          1 33H       0.549000
      3 C3          -3.0900    -0.6460     1.2280 c6         1 33H       0.100300
      4 O1          -3.7110     0.1460     0.1910 os         1 33H      -0.460000
      5 O2          -0.8750    -0.3220     2.2080 o          1 33H      -0.568000
      6 O3          -1.0090    -3.1590    -1.4890 o          1 33H      -0.704500
      7 C11         -1.6740     2.4590    -0.6790 c6         1 33H      -0.068400
      8 C12         -3.7040    -0.2170     2.5990 c3         1 33H      -0.107400
      9 C13          1.3840    -0.0200     0.2970 cc         1 33H      -0.090000
     10 C14          2.6650    -0.4100     0.0200 cd         1 33H      -0.190000
     11 C15          0.9370    -1.9450    -0.9770 cd         1 33H      -0.219600
     12 C16          0.2050    -3.0780    -1.6030 c          1 33H       0.737600
     13 C17          3.8800     0.2130     0.3970 ch         1 33H      -0.037000
     14 C18          4.9150     0.7640     0.7140 c1         1 33H      -0.194100
     15 C19          6.1660     1.4450     1.0890 c3         1 33H       0.055100
     16 C20          7.3270     0.4180     1.0730 c3         1 33H      -0.078433
     17 C21          6.4520     2.5770     0.0700 c3         1 33H      -0.078433
     18 C22          6.0120     2.0440     2.5100 c3         1 33H      -0.078433
     19 C23         -5.2320    -0.4190     2.7270 c3         1 33H       0.172300
     20 C24         -5.7640    -0.0570     4.1270 c3         1 33H      -0.124100
     21 N1          -0.9400    -0.5540    -0.1020 n          1 33H      -0.270000
     22 C4          -3.2680    -0.2580    -1.1220 c6         1 33H       0.142600
     23 C5          -1.7230    -0.0880    -1.2940 c6         1 33H       0.103700
     24 C6          -1.2790     1.3590    -1.7110 c6         1 33H      -0.072700
     25 C7          -1.7740     1.7530    -3.1350 c6         1 33H      -0.068400
     26 C8          -1.2270     3.1400    -3.5550 c6         1 33H      -0.073900
     27 C9          -1.6110     4.2290    -2.5240 c6         1 33H      -0.072400
     28 C10         -1.1320     3.8470    -1.1020 c6         1 33H      -0.073900
     29 S1           2.7100    -1.8660    -0.9890 ss         1 33H       0.288000
     30 O4           0.8620    -3.9180    -2.1990 o          1 33H      -0.704500
     31 O5          -5.8860     0.4030     1.7630 oh         1 33H      -0.656000
     32 H1          -3.3070    -1.7090     1.0510 h1         1 33H       0.067700
     33 H2          -2.7670     2.5160    -0.5820 hc         1 33H       0.042200
     34 H3          -1.2830     2.2100     0.3160 hc         1 33H       0.042200
     35 H4          -3.2240    -0.7960     3.3980 hc         1 33H       0.061700
     36 H5          -3.4610     0.8340     2.7990 hc         1 33H       0.061700
     37 H6           1.1290     0.8670     0.8680 ha         1 33H       0.120000
     38 H7           7.4500    -0.0230     0.0760 hc         1 33H       0.033144
     39 H8           8.2740     0.8980     1.3490 hc         1 33H       0.033144
     40 H9           7.1430    -0.3960     1.7850 hc         1 33H       0.033144
     41 H10          5.6380     3.3140     0.0590 hc         1 33H       0.033144
     42 H11          7.3800     3.1040     0.3230 hc         1 33H       0.033144
     43 H12          6.5590     2.1760    -0.9460 hc         1 33H       0.033144
     44 H13          5.8030     1.2590     3.2480 hc         1 33H       0.033144
     45 H14          6.9300     2.5590     2.8170 hc         1 33H       0.033144
     46 H15          5.1910     2.7700     2.5450 hc         1 33H       0.033144
     47 H16         -5.4570    -1.4780     2.5350 h1         1 33H       0.067700
     48 H17         -5.5570     0.9930     4.3670 hc         1 33H       0.034700
     49 H18         -6.8470    -0.2170     4.1820 hc         1 33H       0.034700
     50 H19         -5.2900    -0.6840     4.8920 hc         1 33H       0.034700
     51 H20         -3.5300    -1.3170    -1.2670 h1         1 33H       0.066200
     52 H21         -3.8200     0.3130    -1.8800 h1         1 33H       0.066200
     53 H22         -1.4420    -0.7370    -2.1350 h1         1 33H       0.093700
     54 H23         -0.1810     1.3480    -1.7640 hc         1 33H       0.060700
     55 H24         -1.4540     0.9980    -3.8670 hc         1 33H       0.042200
     56 H25         -2.8710     1.7800    -3.1730 hc         1 33H       0.042200
     57 H26         -0.1340     3.0930    -3.6550 hc         1 33H       0.032950
     58 H27         -1.6190     3.4100    -4.5450 hc         1 33H       0.032950
     59 H28         -1.1730     5.1920    -2.8180 hc         1 33H       0.028200
     60 H29         -2.7010     4.3680    -2.5210 hc         1 33H       0.028200
     61 H30         -1.4580     4.6090    -0.3820 hc         1 33H       0.032950
     62 H31         -0.0330     3.8390    -1.0710 hc         1 33H       0.032950
     63 H33         -5.2420     0.4620     1.0130 ho         1 33H       0.442000
@<TRIPOS>BOND
     1     1     9 1   
     2     1    11 2   
     3     1    21 1   
     4     2     3 1   
     5     2     5 2   
     6     2    21 1   
     7     3     4 1   
     8     3     8 1   
     9     3    32 1   
    10     4    22 1   
    11     6    12 1   
    12     7    24 1   
    13     7    28 1   
    14     7    33 1   
    15     7    34 1   
    16     8    19 1   
    17     8    35 1   
    18     8    36 1   
    19     9    10 2   
    20     9    37 1   
    21    10    13 1   
    22    10    29 1   
    23    11    12 1   
    24    11    29 1   
    25    12    30 1   
    26    13    14 3   
    27    14    15 1   
    28    15    16 1   
    29    15    17 1   
    30    15    18 1   
    31    16    38 1   
    32    16    39 1   
    33    16    40 1   
    34    17    41 1   
    35    17    42 1   
    36    17    43 1   
    37    18    44 1   
    38    18    45 1   
    39    18    46 1   
    40    19    20 1   
    41    19    31 1   
    42    19    47 1   
    43    20    48 1   
    44    20    49 1   
    45    20    50 1   
    46    21    23 1   
    47    22    23 1   
    48    22    51 1   
    49    22    52 1   
    50    23    24 1   
    51    23    53 1   
    52    24    25 1   
    53    24    54 1   
    54    25    26 1   
    55    25    55 1   
    56    25    56 1   
    57    26    27 1   
    58    26    57 1   
    59    26    58 1   
    60    27    28 1   
    61    27    59 1   
    62    27    60 1   
    63    28    61 1   
    64    28    62 1   
    65    31    63 1   
@<TRIPOS>SUBSTRUCTURE
     1 33H         1 TEMP              0 ****  ****    0 ROOT
