@<TRIPOS>MOLECULE
33I
   44    47     1     0     0
SMALL
abcg2


@<TRIPOS>ATOM
      1 C14        -17.8540   121.8540    22.3540 cc         1 33I       0.200400
      2 C11        -15.9680   118.1220    20.1120 c6         1 33I       0.229800
      3 C10        -14.8950   118.3810    19.0560 c6         1 33I      -0.092900
      4 C12        -12.9590   117.2180    20.1980 c3         1 33I      -0.126100
      5 C02        -19.3140   120.6690    20.8400 c          1 33I       0.631600
      6 C04        -16.9570   120.0600    21.3470 cd         1 33I       0.772800
      7 C06        -14.6650   119.3270    21.7880 c6         1 33I       0.229800
      8 C07        -13.5650   119.6100    20.7700 c6         1 33I      -0.092900
      9 C08        -13.4920   118.5540    19.6570 c6         1 33I       0.170200
     10 C15        -19.1280   121.7410    21.7680 cd         1 33I      -0.354600
     11 C16        -19.8770   122.8460    22.2920 cd         1 33I       0.400500
     12 C17        -21.2690   123.2590    22.0640 ca         1 33I      -0.125500
     13 C18        -21.6680   124.5720    22.3490 ca         1 33I      -0.079000
     14 C19        -22.9860   124.9620    22.1690 ca         1 33I      -0.116000
     15 C20        -23.9380   124.0610    21.7000 ca         1 33I      -0.093000
     16 C21        -23.5300   122.7660    21.4170 ca         1 33I       0.117000
     17 C23        -22.2190   122.3510    21.5900 ca         1 33I      -0.070000
     18 N03        -18.1600   119.8780    20.7040 ns         1 33I      -0.459400
     19 N05        -15.9610   119.1850    21.1170 nh         1 33I      -0.761600
     20 N13        -16.7780   121.0700    22.1850 nc         1 33I      -0.737100
     21 N24        -19.1170   123.5530    23.1190 nc         1 33I      -0.517800
     22 N25        -17.9010   122.9440    23.1450 na         1 33I      -0.023200
     23 O01        -20.3090   120.3690    20.1820 o          1 33I      -0.549000
     24 CL22       -24.7090   121.6100    20.8210 cl         1 33I      -0.217000
     25 H1         -16.9340   118.0340    19.6250 h1         1 33I       0.062200
     26 H2         -15.7920   117.1740    20.6250 h1         1 33I       0.062200
     27 H3         -15.1520   119.2910    18.5090 hc         1 33I       0.063700
     28 H4         -14.8950   117.5540    18.3410 hc         1 33I       0.063700
     29 H5         -13.5850   116.7960    20.9860 hc         1 33I       0.040033
     30 H6         -12.9010   116.4880    19.3890 hc         1 33I       0.040033
     31 H7         -11.9560   117.3590    20.6070 hc         1 33I       0.040033
     32 H8         -14.4690   118.3980    22.3290 h1         1 33I       0.062200
     33 H9         -14.7350   120.1290    22.5120 h1         1 33I       0.062200
     34 H10        -12.6040   119.6700    21.2880 hc         1 33I       0.063700
     35 H11        -13.7530   120.5840    20.3090 hc         1 33I       0.063700
     36 H12        -20.9370   125.2820    22.7080 ha         1 33I       0.130000
     37 H13        -23.2820   125.9800    22.3900 ha         1 33I       0.117000
     38 H14        -24.9660   124.3590    21.5540 ha         1 33I       0.128000
     39 H15        -21.9300   121.3410    21.3440 ha         1 33I       0.157000
     40 H16        -18.2810   119.1000    20.0750 hn         1 33I       0.325500
     41 H19        -17.1610   123.3150    23.7200 hn         1 33I       0.384000
     42 N09        -12.6150   119.0830    18.5960 n8         1 33I      -0.991200
     43 H17        -11.6750   119.1950    18.9680 hn         1 33I       0.395500
     44 H18        -12.5340   118.3920    17.8540 hn         1 33I       0.395500
@<TRIPOS>BOND
     1     1    10 2   
     2     1    20 1   
     3     1    22 1   
     4     2     3 1   
     5     2    19 1   
     6     2    25 1   
     7     2    26 1   
     8     3     9 1   
     9     3    27 1   
    10     3    28 1   
    11     4     9 1   
    12     4    29 1   
    13     4    30 1   
    14     4    31 1   
    15     5    10 1   
    16     5    18 1   
    17     5    23 2   
    18     6    18 1   
    19     6    19 1   
    20     6    20 2   
    21     7     8 1   
    22     7    19 1   
    23     7    32 1   
    24     7    33 1   
    25     8     9 1   
    26     8    34 1   
    27     8    35 1   
    28     9    42 1   
    29    10    11 1   
    30    11    12 1   
    31    11    21 2   
    32    12    13 ar  
    33    12    17 ar  
    34    13    14 ar  
    35    13    36 1   
    36    14    15 ar  
    37    14    37 1   
    38    15    16 ar  
    39    15    38 1   
    40    16    17 ar  
    41    16    24 1   
    42    17    39 1   
    43    18    40 1   
    44    21    22 1   
    45    22    41 1   
    46    42    43 1   
    47    42    44 1   
@<TRIPOS>SUBSTRUCTURE
     1 33I         1 TEMP              0 ****  ****    0 ROOT
