@<TRIPOS>MOLECULE
33I
   44    47     1     0     0
SMALL
No Charge or Current Charge


@<TRIPOS>ATOM
      1 C14        -17.9460   121.7000    22.7240 cc         1 33I       0.200400
      2 C11        -16.0440   118.4260    20.0360 c6         1 33I       0.229800
      3 C10        -14.9490   118.1250    18.9840 c6         1 33I      -0.092900
      4 C12        -13.2110   117.1010    20.5860 c3         1 33I      -0.126100
      5 C02        -19.0850   121.3250    20.5930 c          1 33I       0.631600
      6 C04        -16.9110   120.4920    21.1350 cd         1 33I       0.772800
      7 C06        -14.4750   119.9370    21.2630 c6         1 33I       0.229800
      8 C07        -13.3650   119.6460    20.2220 c6         1 33I      -0.092900
      9 C08        -13.5190   118.2440    19.5740 c6         1 33I       0.170200
     10 C15        -19.0380   121.8690    21.9460 cd         1 33I      -0.354600
     11 C16        -19.9600   122.6410    22.6900 cd         1 33I       0.400500
     12 C17        -21.3020   123.0910    22.2780 ca         1 33I      -0.125500
     13 C18        -21.7240   124.4130    22.5440 ca         1 33I      -0.079000
     14 C19        -23.0200   124.8330    22.1950 ca         1 33I      -0.116000
     15 C20        -23.9160   123.9310    21.5980 ca         1 33I      -0.093000
     16 C21        -23.5160   122.6060    21.3600 ca         1 33I       0.117000
     17 C23        -22.2220   122.1850    21.7070 ca         1 33I      -0.070000
     18 N03        -17.9580   120.6390    20.2910 ns         1 33I      -0.459400
     19 N05        -15.8290   119.7630    20.6610 nh         1 33I      -0.761600
     20 N13        -16.8270   121.0040    22.3550 nc         1 33I      -0.737100
     21 N24        -19.4770   122.9830    23.8790 nc         1 33I      -0.517800
     22 N25        -18.2230   122.3800    23.8930 na         1 33I      -0.023200
     23 O01        -19.9970   121.4600    19.7980 o          1 33I      -0.549000
     24 Cl22       -24.6450   121.4670    20.6380 cl         1 33I      -0.217000
     25 H1         -17.0250   118.3620    19.5450 h1         1 33I       0.062200
     26 H2         -16.0350   117.6460    20.8110 h1         1 33I       0.062200
     27 H3         -15.0660   118.8260    18.1460 hc         1 33I       0.063700
     28 H4         -15.1090   117.1210    18.5680 hc         1 33I       0.063700
     29 H5         -13.8880   117.1140    21.4480 hc         1 33I       0.040033
     30 H6         -13.3080   116.1140    20.1170 hc         1 33I       0.040033
     31 H7         -12.1900   117.1800    20.9810 hc         1 33I       0.040033
     32 H8         -14.3570   119.2750    22.1330 h1         1 33I       0.062200
     33 H9         -14.3370   120.9670    21.6240 h1         1 33I       0.062200
     34 H10        -12.3820   119.7420    20.7040 hc         1 33I       0.063700
     35 H11        -13.4060   120.4220    19.4460 hc         1 33I       0.063700
     36 H12        -21.0410   125.1190    23.0120 ha         1 33I       0.130000
     37 H13        -23.3300   125.8570    22.3930 ha         1 33I       0.117000
     38 H14        -24.9190   124.2530    21.3300 ha         1 33I       0.128000
     39 H15        -21.9400   121.1490    21.5390 ha         1 33I       0.157000
     40 H16        -17.9000   120.2560    19.3650 hn         1 33I       0.325500
     41 H19        -17.5960   122.4560    24.6890 hn         1 33I       0.384000
     42 N09        -12.5440   118.1110    18.4810 n8         1 33I      -0.991200
     43 H17        -11.9250   118.9280    18.4900 hn         1 33I       0.395500
     44 H18        -11.9160   117.3310    18.6990 hn         1 33I       0.395500
@<TRIPOS>BOND
     1     1    10 2   
     2     1    20 1   
     3     1    22 1   
     4     2     3 1   
     5     2    19 1   
     6     2    25 1   
     7     2    26 1   
     8     3     9 1   
     9     3    27 1   
    10     3    28 1   
    11     4     9 1   
    12     4    29 1   
    13     4    30 1   
    14     4    31 1   
    15     5    10 1   
    16     5    18 1   
    17     5    23 2   
    18     6    18 1   
    19     6    19 1   
    20     6    20 2   
    21     7     8 1   
    22     7    19 1   
    23     7    32 1   
    24     7    33 1   
    25     8     9 1   
    26     8    34 1   
    27     8    35 1   
    28     9    42 1   
    29    10    11 1   
    30    11    12 1   
    31    11    21 2   
    32    12    13 ar  
    33    12    17 ar  
    34    13    14 ar  
    35    13    36 1   
    36    14    15 ar  
    37    14    37 1   
    38    15    16 ar  
    39    15    38 1   
    40    16    17 ar  
    41    16    24 1   
    42    17    39 1   
    43    18    40 1   
    44    21    22 1   
    45    22    41 1   
    46    42    43 1   
    47    42    44 1   
@<TRIPOS>SUBSTRUCTURE
     1 33I         1 TEMP              0 ****  ****    0 ROOT
