@<TRIPOS>MOLECULE
33J
   48    51     1     0     0
SMALL
No Charge or Current Charge


@<TRIPOS>ATOM
      1 C1           0.8890     2.1250     1.6690 c          1 33J       0.738600
      2 C2          -0.0300     1.2970     0.8470 cc         1 33J      -0.218600
      3 C3          -2.0820     0.2960    -0.1900 cc         1 33J      -0.259000
      4 O1           0.4700     2.5560     2.7340 o          1 33J      -0.706000
      5 O2           2.0040     2.4040     1.2560 o          1 33J      -0.706000
      6 C11          1.4560    -2.4010     0.2800 c6         1 33J      -0.068400
      7 C12          1.1440    -3.3540     1.4590 c6         1 33J      -0.074900
      8 C13          2.4460    -3.8430     2.1400 c6         1 33J      -0.072400
      9 C14          3.3210    -2.6510     2.5960 c6         1 33J      -0.074900
     10 C15          3.6200    -1.6880     1.4190 c6         1 33J      -0.068400
     11 C16         -3.3880    -0.2340    -0.5890 ca         1 33J       0.045000
     12 C17         -4.3160    -0.6400     0.3930 ca         1 33J      -0.116500
     13 C18         -5.5750    -1.1460     0.0230 ca         1 33J      -0.113000
     14 C19         -5.9210    -1.2470    -1.3330 ca         1 33J      -0.138000
     15 C20         -5.0090    -0.8400    -2.3200 ca         1 33J      -0.113000
     16 C21         -3.7500    -0.3360    -1.9500 ca         1 33J      -0.116500
     17 S1          -1.7090     1.0870     1.3360 ss         1 33J       0.268000
     18 C4          -0.9590     0.1160    -0.9590 cd         1 33J      -0.099000
     19 C5           0.2140     0.6740    -0.3680 cd         1 33J      -0.021400
     20 N1           1.4440     0.5200    -1.0190 n          1 33J      -0.288000
     21 C6           1.6450     0.8070    -2.3810 c          1 33J       0.595000
     22 C7           3.1150     0.4780    -2.6340 c5         1 33J      -0.172400
     23 C8           3.3810    -0.6780    -1.6410 c5         1 33J      -0.079400
     24 C9           2.6220    -0.1400    -0.3790 c5         1 33J       0.115700
     25 C10          2.3100    -1.1820     0.7510 c6         1 33J      -0.065700
     26 H4           0.5110    -2.8390     2.1950 hc         1 33J       0.034200
     27 H5           0.5660    -4.2160     1.0990 hc         1 33J       0.034200
     28 H6           2.2000    -4.4780     3.0020 hc         1 33J       0.027700
     29 H7           3.0140    -4.4720     1.4410 hc         1 33J       0.027700
     30 H8           2.8090    -2.1030     3.4000 hc         1 33J       0.034200
     31 H9           4.2630    -3.0220     3.0230 hc         1 33J       0.034200
     32 H10          4.2080    -0.8360     1.7880 hc         1 33J       0.040200
     33 H11          4.2490    -2.2030     0.6790 hc         1 33J       0.040200
     34 H12         -4.0610    -0.5750     1.4470 ha         1 33J       0.116500
     35 H13         -6.2800    -1.4600     0.7890 ha         1 33J       0.099000
     36 H14         -6.8950    -1.6380    -1.6190 ha         1 33J       0.097000
     37 H15         -5.2770    -0.9130    -3.3710 ha         1 33J       0.099000
     38 H16         -3.0630    -0.0110    -2.7260 ha         1 33J       0.116500
     39 H17         -0.9550    -0.4210    -1.9010 ha         1 33J       0.115000
     40 H18          3.3060     0.2540    -3.6890 hc         1 33J       0.072700
     41 H19          3.7130     1.3440    -2.3270 hc         1 33J       0.072700
     42 H20          2.9580    -1.6140    -2.0210 hc         1 33J       0.038200
     43 H21          4.4490    -0.8440    -1.4570 hc         1 33J       0.038200
     44 H22          3.2470     0.6360     0.0800 h1         1 33J       0.077700
     45 H23          1.7410    -0.6590     1.5310 hc         1 33J       0.065700
     46 H2           1.9870    -2.9650    -0.4980 hc         1 33J       0.040200
     47 O3           0.7750     1.0740    -3.2010 o          1 33J      -0.547000
     48 H3           0.5130    -2.0670    -0.1690 hc         1 33J       0.040200
@<TRIPOS>BOND
     1     1     2 1   
     2     1     4 1   
     3     1     5 1   
     4     2    17 1   
     5     2    19 2   
     6     3    11 1   
     7     3    17 1   
     8     3    18 2   
     9     6     7 1   
    10     6    25 1   
    11     6    46 1   
    12     6    48 1   
    13     7     8 1   
    14     7    26 1   
    15     7    27 1   
    16     8     9 1   
    17     8    28 1   
    18     8    29 1   
    19     9    10 1   
    20     9    30 1   
    21     9    31 1   
    22    10    25 1   
    23    10    32 1   
    24    10    33 1   
    25    11    12 ar  
    26    11    16 ar  
    27    12    13 ar  
    28    12    34 1   
    29    13    14 ar  
    30    13    35 1   
    31    14    15 ar  
    32    14    36 1   
    33    15    16 ar  
    34    15    37 1   
    35    16    38 1   
    36    18    19 1   
    37    18    39 1   
    38    19    20 1   
    39    20    21 1   
    40    20    24 1   
    41    21    22 1   
    42    21    47 2   
    43    22    23 1   
    44    22    40 1   
    45    22    41 1   
    46    23    24 1   
    47    23    42 1   
    48    23    43 1   
    49    24    25 1   
    50    24    44 1   
    51    25    45 1   
@<TRIPOS>SUBSTRUCTURE
     1 33J         1 TEMP              0 ****  ****    0 ROOT
