@<TRIPOS>MOLECULE
33J
   48    51     1     0     0
SMALL
abcg2


@<TRIPOS>ATOM
      1 C1           0.7940     3.1460     0.4230 c          1 33J       0.738600
      2 C2          -0.0430     1.9520     0.0430 cc         1 33J      -0.218600
      3 C3          -1.9930     0.4240    -0.2200 cc         1 33J      -0.259000
      4 O1           0.1660     4.0570     0.9940 o          1 33J      -0.706000
      5 O2           2.0040     3.1080     0.1410 o          1 33J      -0.706000
      6 C11          1.8100    -2.5710    -0.5760 c6         1 33J      -0.068400
      7 C12          1.2220    -3.8280     0.0560 c6         1 33J      -0.074900
      8 C13          2.1270    -4.3520     1.1670 c6         1 33J      -0.072400
      9 C14          2.4020    -3.2740     2.2110 c6         1 33J      -0.074900
     10 C15          2.9590    -2.0040     1.5730 c6         1 33J      -0.068400
     11 C16         -3.3130    -0.2030    -0.1740 ca         1 33J       0.045000
     12 C17         -4.2710     0.1890     0.7650 ca         1 33J      -0.116500
     13 C18         -5.5160    -0.4200     0.8070 ca         1 33J      -0.113000
     14 C19         -5.8280    -1.4400    -0.0820 ca         1 33J      -0.138000
     15 C20         -4.8820    -1.8410    -1.0180 ca         1 33J      -0.113000
     16 C21         -3.6410    -1.2270    -1.0670 ca         1 33J      -0.116500
     17 S1          -1.7070     1.9880     0.4530 ss         1 33J       0.268000
     18 C4          -0.8390    -0.0840    -0.7520 cd         1 33J      -0.099000
     19 C5           0.2730     0.7830    -0.5970 cd         1 33J      -0.021400
     20 N1           1.5740     0.4540    -1.0170 n          1 33J      -0.288000
     21 C6           2.1770     1.1370    -2.0250 c          1 33J       0.595000
     22 C7           3.6670     0.9360    -1.8970 c5         1 33J      -0.172400
     23 C8           3.8140    -0.1990    -0.8920 c5         1 33J      -0.079400
     24 C9           2.5190    -0.1490    -0.0730 c5         1 33J       0.115700
     25 C10          2.0270    -1.4860     0.4780 c6         1 33J      -0.065700
     26 H4           0.2310    -3.6030     0.4640 hc         1 33J       0.034200
     27 H5           1.0770    -4.5980    -0.7070 hc         1 33J       0.034200
     28 H6           1.6830    -5.2320     1.6380 hc         1 33J       0.027700
     29 H7           3.0760    -4.6790     0.7280 hc         1 33J       0.027700
     30 H8           1.4690    -3.0300     2.7310 hc         1 33J       0.034200
     31 H9           3.0920    -3.6500     2.9700 hc         1 33J       0.034200
     32 H10          3.1030    -1.2340     2.3380 hc         1 33J       0.040200
     33 H11          3.9480    -2.2120     1.1480 hc         1 33J       0.040200
     34 H12         -4.0450     0.9670     1.4840 ha         1 33J       0.116500
     35 H13         -6.2420    -0.0990     1.5430 ha         1 33J       0.099000
     36 H14         -6.7980    -1.9180    -0.0460 ha         1 33J       0.097000
     37 H15         -5.1130    -2.6320    -1.7190 ha         1 33J       0.099000
     38 H16         -2.9270    -1.5410    -1.8180 ha         1 33J       0.116500
     39 H17         -0.7680    -1.0560    -1.2210 ha         1 33J       0.115000
     40 H18          4.1330     0.7410    -2.8620 hc         1 33J       0.072700
     41 H19          4.0780     1.8730    -1.5130 hc         1 33J       0.072700
     42 H20          3.8980    -1.1500    -1.4170 hc         1 33J       0.038200
     43 H21          4.6920    -0.0980    -0.2560 hc         1 33J       0.038200
     44 H22          2.6410     0.5440     0.7680 h1         1 33J       0.077700
     45 H23          1.0560    -1.2900     0.9550 hc         1 33J       0.065700
     46 H2           2.7660    -2.8340    -1.0430 hc         1 33J       0.040200
     47 O3           1.6000     1.7960    -2.8690 o          1 33J      -0.547000
     48 H3           1.1670    -2.2110    -1.3830 hc         1 33J       0.040200
@<TRIPOS>BOND
     1     1     2 1   
     2     1     4 1   
     3     1     5 1   
     4     2    17 1   
     5     2    19 2   
     6     3    11 1   
     7     3    17 1   
     8     3    18 2   
     9     6     7 1   
    10     6    25 1   
    11     6    46 1   
    12     6    48 1   
    13     7     8 1   
    14     7    26 1   
    15     7    27 1   
    16     8     9 1   
    17     8    28 1   
    18     8    29 1   
    19     9    10 1   
    20     9    30 1   
    21     9    31 1   
    22    10    25 1   
    23    10    32 1   
    24    10    33 1   
    25    11    12 ar  
    26    11    16 ar  
    27    12    13 ar  
    28    12    34 1   
    29    13    14 ar  
    30    13    35 1   
    31    14    15 ar  
    32    14    36 1   
    33    15    16 ar  
    34    15    37 1   
    35    16    38 1   
    36    18    19 1   
    37    18    39 1   
    38    19    20 1   
    39    20    21 1   
    40    20    24 1   
    41    21    22 1   
    42    21    47 2   
    43    22    23 1   
    44    22    40 1   
    45    22    41 1   
    46    23    24 1   
    47    23    42 1   
    48    23    43 1   
    49    24    25 1   
    50    24    44 1   
    51    25    45 1   
@<TRIPOS>SUBSTRUCTURE
     1 33J         1 TEMP              0 ****  ****    0 ROOT
