@<TRIPOS>MOLECULE
33K
   44    45     1     0     0
SMALL
abcg2


@<TRIPOS>ATOM
      1 N12         -1.7410     1.4430     0.6230 ns         1 33K      -0.461900
      2 C13         -0.5630     1.0420     0.1320 c          1 33K       0.606100
      3 C15          0.5230     0.8060     1.1700 c3         1 33K       0.089800
      4 C21          3.4550     0.1720     0.7640 ca         1 33K      -0.055300
      5 C22          3.3210     0.2780    -0.6190 ca         1 33K      -0.094500
      6 C24          5.4150     1.4620    -0.7620 ca         1 33K      -0.141000
      7 C26          4.5780     0.7280     1.3710 ca         1 33K      -0.094500
      8 O            1.3730    -3.1240     0.1060 o          1 33K      -0.734500
      9 C03         -3.5050     3.1460     0.3000 c          1 33K       0.716000
     10 O04         -4.3820     3.6140    -0.4480 o          1 33K      -0.733500
     11 C05         -2.8790     1.8120    -0.1800 c3         1 33K      -0.041300
     12 C06         -3.9740     0.7270    -0.1740 c3         1 33K      -0.003100
     13 C07         -3.4920    -0.6720    -0.3300 cc         1 33K      -0.188300
     14 N08         -2.5810    -1.0900    -1.2590 na         1 33K      -0.290500
     15 C09         -2.4170    -2.4220    -1.1130 cc         1 33K       0.392400
     16 N10         -3.1810    -2.9000    -0.1670 nd         1 33K      -0.680000
     17 C11         -3.8520    -1.8170     0.3300 cd         1 33K       0.189900
     18 O14         -0.3400     0.8830    -1.0640 o          1 33K      -0.662100
     19 N16          1.1050    -0.5040     1.0160 n3         1 33K      -0.682600
     20 C18          0.5710    -2.9780     1.0450 c          1 33K       0.719000
     21 O19         -0.0300    -3.8790     1.6640 o          1 33K      -0.734500
     22 C23          4.2920     0.9200    -1.3750 ca         1 33K      -0.131000
     23 C25          5.5550     1.3640     0.6160 ca         1 33K      -0.131000
     24 H1          -1.8170     1.6190     1.6130 hn         1 33K       0.323500
     25 H2           1.2890     1.5660     0.9920 h1         1 33K       0.027200
     26 H3           0.1420     0.9860     2.1900 h1         1 33K       0.027200
     27 H4           0.1470    -1.5320     2.6030 h1         1 33K       0.024700
     28 H5          -0.7870    -1.3470     1.1370 h1         1 33K       0.024700
     29 H6           2.7300    -1.6260     1.6070 h1         1 33K       0.041200
     30 H7           2.4690    -0.2240     2.6270 h1         1 33K       0.041200
     31 H8           2.4340    -0.1310    -1.0850 ha         1 33K       0.134000
     32 H9           6.1720     1.9630    -1.3530 ha         1 33K       0.083000
     33 H10          4.6920     0.6650     2.4480 ha         1 33K       0.134000
     34 H12         -2.5250     1.9460    -1.2040 h1         1 33K       0.057700
     35 H13         -4.5290     0.7690     0.7680 hc         1 33K       0.050200
     36 H14         -4.6920     0.9740    -0.9600 hc         1 33K       0.050200
     37 H15         -2.0230    -0.4920    -1.8510 hn         1 33K       0.370000
     38 H16         -1.7230    -2.9850    -1.7180 h5         1 33K       0.055100
     39 H18         -4.5650    -1.9040     1.1370 h4         1 33K       0.011100
     40 H21          4.1710     0.9990    -2.4490 ha         1 33K       0.091000
     41 H22          6.4210     1.7910     1.1050 ha         1 33K       0.091000
     42 O02         -3.1070     3.6060     1.3850 o          1 33K      -0.733500
     43 C17          0.2280    -1.5450     1.5030 c3         1 33K       0.020800
     44 C20          2.4330    -0.5760     1.5810 c3         1 33K       0.223100
@<TRIPOS>BOND
     1     1     2 1   
     2     1    11 1   
     3     1    24 1   
     4     2     3 1   
     5     2    18 2   
     6     3    19 1   
     7     3    25 1   
     8     3    26 1   
     9     4     5 ar  
    10     4     7 ar  
    11     4    44 1   
    12     5    22 ar  
    13     5    31 1   
    14     6    22 ar  
    15     6    23 ar  
    16     6    32 1   
    17     7    23 ar  
    18     7    33 1   
    19     8    20 1   
    20     9    10 1   
    21     9    11 1   
    22     9    42 1   
    23    11    12 1   
    24    11    34 1   
    25    12    13 1   
    26    12    35 1   
    27    12    36 1   
    28    13    14 1   
    29    13    17 2   
    30    14    15 1   
    31    14    37 1   
    32    15    16 2   
    33    15    38 1   
    34    16    17 1   
    35    17    39 1   
    36    19    43 1   
    37    19    44 1   
    38    20    21 1   
    39    20    43 1   
    40    22    40 1   
    41    23    41 1   
    42    27    43 1   
    43    28    43 1   
    44    29    44 1   
    45    30    44 1   
@<TRIPOS>SUBSTRUCTURE
     1 33K         1 TEMP              0 ****  ****    0 ROOT
