@<TRIPOS>MOLECULE
33K
   44    45     1     0     0
SMALL
No Charge or Current Charge


@<TRIPOS>ATOM
      1 N12         -1.6670     1.4440     0.6790 ns         1 33K      -0.461900
      2 C13         -0.5820     1.1460    -0.1220 c          1 33K       0.606100
      3 C15          0.7520     0.8890     0.6420 c3         1 33K       0.089800
      4 C21          3.6620     0.1000     0.7270 ca         1 33K      -0.055300
      5 C22          4.0960    -0.3250    -0.5450 ca         1 33K      -0.094500
      6 C24          5.7330     1.4760    -0.6050 ca         1 33K      -0.141000
      7 C26          4.2720     1.2200     1.3260 ca         1 33K      -0.094500
      8 O            0.3460    -3.6660     0.5060 o          1 33K      -0.734500
      9 C03         -3.6060     2.9950     0.9050 c          1 33K       0.716000
     10 O04         -4.0030     3.9120     0.1990 o          1 33K      -0.733500
     11 C05         -3.0520     1.7150     0.2090 c3         1 33K      -0.041300
     12 C06         -4.0060     0.5110     0.4410 c3         1 33K      -0.003100
     13 C07         -3.7390    -0.7260    -0.3870 cc         1 33K      -0.188300
     14 N08         -2.7360    -0.8850    -1.3180 na         1 33K      -0.290500
     15 C09         -2.8330    -2.1470    -1.8460 cc         1 33K       0.392400
     16 N10         -3.8610    -2.7900    -1.3120 nd         1 33K      -0.680000
     17 C11         -4.4250    -1.9150    -0.4060 cd         1 33K       0.189900
     18 O14         -0.6810     1.0780    -1.3450 o          1 33K      -0.662100
     19 N16          1.2140    -0.5340     0.7800 n3         1 33K      -0.682600
     20 C18          0.4770    -2.9700     1.5060 c          1 33K       0.719000
     21 O19          0.8340    -3.4180     2.5890 o          1 33K      -0.734500
     22 C23          5.1290     0.3610    -1.2080 ca         1 33K      -0.131000
     23 C25          5.3040     1.9060     0.6620 ca         1 33K      -0.131000
     24 H1          -1.4900     1.4900     1.6770 hn         1 33K       0.323500
     25 H2           1.5150     1.4800     0.1190 h1         1 33K       0.027200
     26 H3           0.6490     1.3340     1.6410 h1         1 33K       0.027200
     27 H4          -0.0470    -1.0760     2.4140 h1         1 33K       0.024700
     28 H5          -0.7610    -1.3480     0.8330 h1         1 33K       0.024700
     29 H6           2.8400    -1.7060     1.4990 h1         1 33K       0.041200
     30 H7           2.4710    -0.2900     2.4800 h1         1 33K       0.041200
     31 H8           3.6280    -1.1860    -1.0170 ha         1 33K       0.134000
     32 H9           6.5310     2.0070    -1.1190 ha         1 33K       0.083000
     33 H10          3.9450     1.5610     2.3070 ha         1 33K       0.134000
     34 H12         -3.0260     1.9320    -0.8670 h1         1 33K       0.057700
     35 H13         -3.9880     0.2440     1.5050 hc         1 33K       0.050200
     36 H14         -5.0300     0.8450     0.2340 hc         1 33K       0.050200
     37 H15         -2.0170    -0.2040    -1.5560 hn         1 33K       0.370000
     38 H16         -2.1470    -2.5230    -2.5970 h5         1 33K       0.055100
     39 H18         -5.2920    -2.1900     0.1820 h4         1 33K       0.011100
     40 H21          5.4590     0.0280    -2.1900 ha         1 33K       0.091000
     41 H22          5.7710     2.7700     1.1290 ha         1 33K       0.091000
     42 O02         -3.5450     3.0690     2.1260 o          1 33K      -0.733500
     43 C17          0.1760    -1.4310     1.3990 c3         1 33K       0.020800
     44 C20          2.5410    -0.6510     1.4450 c3         1 33K       0.223100
@<TRIPOS>BOND
     1     1     2 1   
     2     1    11 1   
     3     1    24 1   
     4     2     3 1   
     5     2    18 2   
     6     3    19 1   
     7     3    25 1   
     8     3    26 1   
     9     4     5 ar  
    10     4     7 ar  
    11     4    44 1   
    12     5    22 ar  
    13     5    31 1   
    14     6    22 ar  
    15     6    23 ar  
    16     6    32 1   
    17     7    23 ar  
    18     7    33 1   
    19     8    20 1   
    20     9    10 1   
    21     9    11 1   
    22     9    42 1   
    23    11    12 1   
    24    11    34 1   
    25    12    13 1   
    26    12    35 1   
    27    12    36 1   
    28    13    14 1   
    29    13    17 2   
    30    14    15 1   
    31    14    37 1   
    32    15    16 2   
    33    15    38 1   
    34    16    17 1   
    35    17    39 1   
    36    19    43 1   
    37    19    44 1   
    38    20    21 1   
    39    20    43 1   
    40    22    40 1   
    41    23    41 1   
    42    27    43 1   
    43    28    43 1   
    44    29    44 1   
    45    30    44 1   
@<TRIPOS>SUBSTRUCTURE
     1 33K         1 TEMP              0 ****  ****    0 ROOT
