@<TRIPOS>MOLECULE
33L
   44    45     1     0     0
SMALL
No Charge or Current Charge


@<TRIPOS>ATOM
      1 CD1          1.2140    -2.0740     1.5250 ca         1 33L      -0.099000
      2 CE1          2.3020    -2.9440     1.3360 ca         1 33L      -0.106000
      3 CZ           2.2580    -3.9170     0.3240 ca         1 33L      -0.106000
      4 CE2          1.1240    -4.0200    -0.5000 ca         1 33L      -0.106000
      5 CD2          0.0370    -3.1490    -0.3130 ca         1 33L      -0.099000
      6 CG           0.0750    -2.1710     0.7000 ca         1 33L      -0.084300
      7 CB          -1.1020    -1.2210     0.8950 c3         1 33L      -0.048100
      8 CA          -1.0920    -0.0140    -0.0820 c3         1 33L       0.030700
      9 C           -2.2930     0.9380     0.1880 c          1 33L       0.591100
     10 O           -2.1660     2.0600     0.6640 o          1 33L      -0.605100
     11 NAK         -3.5310     0.4360    -0.1520 ns         1 33L      -0.503900
     12 CAL         -4.7920     1.1640     0.0240 c3         1 33L       0.101000
     13 CAM         -6.0240     0.3120    -0.3670 c3         1 33L       0.133800
     14 NAN         -7.3020     1.0380    -0.1900 n8         1 33L      -0.993200
     15 N            0.1880     0.7280     0.0070 ns         1 33L      -0.488900
     16 CAP          1.2760     0.5440    -0.8210 c          1 33L       0.619700
     17 OAQ          1.2230    -0.2100    -1.7830 o          1 33L      -0.597100
     18 CAR          2.5270     1.3310    -0.4820 ca         1 33L      -0.151600
     19 CAS          2.6000     2.1920     0.6430 ca         1 33L      -0.072000
     20 CAT          3.7810     2.9010     0.9240 ca         1 33L      -0.121000
     21 CAU          4.9040     2.7640     0.0950 ca         1 33L      -0.091000
     22 CAV          4.8480     1.9150    -1.0200 ca         1 33L      -0.121000
     23 CAW          3.6700     1.2040    -1.3060 ca         1 33L      -0.072000
     24 H1           1.2590    -1.3210     2.3080 ha         1 33L       0.108500
     25 H2           3.1800    -2.8620     1.9740 ha         1 33L       0.112000
     26 H3           3.1000    -4.5900     0.1790 ha         1 33L       0.112000
     27 H4           1.0890    -4.7720    -1.2840 ha         1 33L       0.112000
     28 H5          -0.8350    -3.2320    -0.9580 ha         1 33L       0.108500
     29 H6          -2.0410    -1.7750     0.7750 hc         1 33L       0.059200
     30 H7          -1.1090    -0.8420     1.9250 hc         1 33L       0.059200
     31 H8          -1.2150    -0.3910    -1.1050 h1         1 33L       0.089700
     32 H9          -3.5590    -0.4970    -0.5480 hn         1 33L       0.314500
     33 H10         -4.8800     1.4690     1.0750 h1         1 33L       0.061700
     34 H11         -4.7630     2.0720    -0.5940 h1         1 33L       0.061700
     35 H12         -5.9390     0.0050    -1.4190 h1         1 33L       0.030200
     36 H13         -6.0500    -0.5930     0.2560 h1         1 33L       0.030200
     37 H14         -7.3390     1.8260    -0.8500 hn         1 33L       0.398500
     38 H15         -8.0770     0.4350    -0.4980 hn         1 33L       0.398500
     39 H17          0.2870     1.4130     0.7460 hn         1 33L       0.330500
     40 H18          1.7530     2.3230     1.3120 ha         1 33L       0.127500
     41 H19          3.8240     3.5580     1.7900 ha         1 33L       0.116500
     42 H20          5.8160     3.3150     0.3170 ha         1 33L       0.114000
     43 H21          5.7170     1.8060    -1.6640 ha         1 33L       0.116500
     44 H22          3.6490     0.5490    -2.1760 ha         1 33L       0.127500
@<TRIPOS>BOND
     1     1     2 ar  
     2     1     6 ar  
     3     1    24 1   
     4     2     3 ar  
     5     2    25 1   
     6     3     4 ar  
     7     3    26 1   
     8     4     5 ar  
     9     4    27 1   
    10     5     6 ar  
    11     5    28 1   
    12     6     7 1   
    13     7     8 1   
    14     7    29 1   
    15     7    30 1   
    16     8     9 1   
    17     8    15 1   
    18     8    31 1   
    19     9    10 2   
    20     9    11 1   
    21    11    12 1   
    22    11    32 1   
    23    12    13 1   
    24    12    33 1   
    25    12    34 1   
    26    13    14 1   
    27    13    35 1   
    28    13    36 1   
    29    14    37 1   
    30    14    38 1   
    31    15    16 1   
    32    15    39 1   
    33    16    17 2   
    34    16    18 1   
    35    18    19 ar  
    36    18    23 ar  
    37    19    20 ar  
    38    19    40 1   
    39    20    21 ar  
    40    20    41 1   
    41    21    22 ar  
    42    21    42 1   
    43    22    23 ar  
    44    22    43 1   
    45    23    44 1   
@<TRIPOS>SUBSTRUCTURE
     1 33L         1 TEMP              0 ****  ****    0 ROOT
