@<TRIPOS>MOLECULE
33L
   44    45     1     0     0
SMALL
bcc


@<TRIPOS>ATOM
      1 CD1          1.3830    -1.9630     1.3550 ca         1 33L      -0.117000
      2 CE1          2.5060    -2.7010     1.0080 ca         1 33L      -0.124000
      3 CZ           2.4160    -3.6920     0.0400 ca         1 33L      -0.124000
      4 CE2          1.1950    -3.9410    -0.5740 ca         1 33L      -0.124000
      5 CD2          0.0770    -3.1960    -0.2280 ca         1 33L      -0.117000
      6 CG           0.1580    -2.1960     0.7370 ca         1 33L      -0.084300
      7 CB          -1.0350    -1.3420     1.0520 c3         1 33L      -0.048100
      8 CA          -1.1290    -0.1380     0.0880 c3         1 33L       0.030700
      9 C           -2.3130     0.7360     0.4900 c          1 33L       0.658100
     10 O           -2.1990     1.6010     1.3470 o          1 33L      -0.605100
     11 NAK         -3.4660     0.4460    -0.1180 ns         1 33L      -0.570900
     12 CAL         -4.7080     1.1290     0.1770 c3         1 33L       0.101000
     13 CAM         -5.8600     0.4690    -0.5630 c3         1 33L       0.133800
     14 NAN         -7.0900     1.1940    -0.2950 n8         1 33L      -0.882800
     15 N            0.0730     0.6510     0.1260 ns         1 33L      -0.555900
     16 CAP          1.0650     0.5340    -0.7800 c          1 33L       0.686700
     17 OAQ          0.9800    -0.1460    -1.7900 o          1 33L      -0.597100
     18 CAR          2.3080     1.3000    -0.4620 ca         1 33L      -0.151600
     19 CAS          2.2840     2.5200     0.2090 ca         1 33L      -0.090000
     20 CAT          3.4680     3.1950     0.4760 ca         1 33L      -0.139000
     21 CAU          4.6830     2.6480     0.0840 ca         1 33L      -0.109000
     22 CAV          4.7110     1.4320    -0.5870 ca         1 33L      -0.139000
     23 CAW          3.5280     0.7660    -0.8700 ca         1 33L      -0.090000
     24 H1           1.4620    -1.1960     2.1180 ha         1 33L       0.126500
     25 H2           3.4520    -2.5030     1.4960 ha         1 33L       0.130000
     26 H3           3.2890    -4.2720    -0.2300 ha         1 33L       0.130000
     27 H4           1.1150    -4.7180    -1.3240 ha         1 33L       0.130000
     28 H5          -0.8710    -3.3920    -0.7170 ha         1 33L       0.126500
     29 H6          -1.9560    -1.9240     0.9760 hc         1 33L       0.059200
     30 H7          -0.9750    -0.9660     2.0770 hc         1 33L       0.059200
     31 H8          -1.2580    -0.5070    -0.9300 h1         1 33L       0.089700
     32 H9          -3.4660    -0.2430    -0.8540 hn         1 33L       0.314500
     33 H10         -4.9010     1.1030     1.2520 h1         1 33L       0.061700
     34 H11         -4.6340     2.1820    -0.1130 h1         1 33L       0.061700
     35 H12         -5.6110     0.4010    -1.6320 h1         1 33L       0.030200
     36 H13         -5.9750    -0.5560    -0.2020 h1         1 33L       0.030200
     37 H14         -7.0890     2.0640    -0.8120 hn         1 33L       0.343300
     38 H15         -7.8750     0.6650    -0.6520 hn         1 33L       0.343300
     39 H17          0.2550     1.1470     0.9850 hn         1 33L       0.330500
     40 H18          1.3440     2.9700     0.5050 ha         1 33L       0.145500
     41 H19          3.4390     4.1470     0.9880 ha         1 33L       0.134500
     42 H20          5.6060     3.1710     0.2980 ha         1 33L       0.132000
     43 H21          5.6560     1.0030    -0.8900 ha         1 33L       0.134500
     44 H22          3.5510    -0.1800    -1.3940 ha         1 33L       0.145500
@<TRIPOS>BOND
     1     1     2 ar  
     2     1     6 ar  
     3     1    24 1   
     4     2     3 ar  
     5     2    25 1   
     6     3     4 ar  
     7     3    26 1   
     8     4     5 ar  
     9     4    27 1   
    10     5     6 ar  
    11     5    28 1   
    12     6     7 1   
    13     7     8 1   
    14     7    29 1   
    15     7    30 1   
    16     8     9 1   
    17     8    15 1   
    18     8    31 1   
    19     9    10 2   
    20     9    11 1   
    21    11    12 1   
    22    11    32 1   
    23    12    13 1   
    24    12    33 1   
    25    12    34 1   
    26    13    14 1   
    27    13    35 1   
    28    13    36 1   
    29    14    37 1   
    30    14    38 1   
    31    15    16 1   
    32    15    39 1   
    33    16    17 2   
    34    16    18 1   
    35    18    19 ar  
    36    18    23 ar  
    37    19    20 ar  
    38    19    40 1   
    39    20    21 ar  
    40    20    41 1   
    41    21    22 ar  
    42    21    42 1   
    43    22    23 ar  
    44    22    43 1   
    45    23    44 1   
@<TRIPOS>SUBSTRUCTURE
     1 33L         1 TEMP              0 ****  ****    0 ROOT
