@<TRIPOS>MOLECULE
33M
   40    43     1     0     0
SMALL
No Charge or Current Charge


@<TRIPOS>ATOM
      1 CAL          1.3810    -1.2300     0.2160 ca         1 33M      -0.118000
      2 C5           2.5340    -0.4080     0.1950 ca         1 33M      -0.230000
      3 C6           3.7750    -0.8200     0.7280 ca         1 33M       0.436900
      4 NAC          3.9770    -2.0260     1.3170 nv         1 33M      -1.077900
      5 N1           4.8600    -0.0450     0.7020 nb         1 33M      -0.339000
      6 C2           4.6910     1.1500     0.1380 ca         1 33M       0.413900
      7 NAB          5.7860     1.9430     0.1050 nv         1 33M      -1.051900
      8 N3           3.5730     1.6560    -0.3990 nb         1 33M      -0.258000
      9 C4           2.4610     0.8880    -0.3850 ca         1 33M       0.110000
     10 NAM          1.3020     1.3370    -0.9080 nb         1 33M      -0.115000
     11 CAK          0.2040     0.5540    -0.8840 ca         1 33M       0.099900
     12 CAR          0.1750    -0.7490    -0.3340 ca         1 33M       0.237000
     13 NAX         -1.0200    -1.5340    -0.3350 nh         1 33M      -0.858200
     14 CAA         -0.9640    -2.9980    -0.0990 c3         1 33M       0.219100
     15 CAS         -2.2830    -0.9540    -0.6300 ca         1 33M       0.274000
     16 CAV         -2.9030    -0.0010     0.2260 ca         1 33M      -0.045000
     17 CAJ         -2.3150     0.3950     1.4510 ca         1 33M      -0.097000
     18 CAE         -2.9450     1.3430     2.2750 ca         1 33M      -0.102000
     19 CAD         -4.1730     1.9040     1.8920 ca         1 33M      -0.103000
     20 CAH         -4.7750     1.5130     0.6860 ca         1 33M      -0.098000
     21 CAT         -4.1500     0.5640    -0.1450 ca         1 33M      -0.034000
     22 CAI         -4.7730     0.1780    -1.3460 ca         1 33M      -0.092000
     23 CAF         -4.1660    -0.7710    -2.1810 ca         1 33M      -0.107000
     24 CAG         -2.9300    -1.3310    -1.8230 ca         1 33M      -0.098000
     25 H1           1.4210    -2.2200     0.6560 ha         1 33M       0.106000
     26 H2           3.1660    -2.5510     1.6300 hn         1 33M       0.494500
     27 H3           4.8320    -2.1550     1.8530 hn         1 33M       0.494500
     28 H4           6.6910     1.5170     0.2900 hn         1 33M       0.487500
     29 H5           5.7790     2.7550    -0.5070 hn         1 33M       0.487500
     30 H6          -0.6840     0.9940    -1.3330 h4         1 33M       0.030100
     31 H7          -0.7070    -3.2120     0.9480 h1         1 33M       0.036367
     32 H8          -1.9360    -3.4640    -0.3060 h1         1 33M       0.036367
     33 H9          -0.2230    -3.4680    -0.7590 h1         1 33M       0.036367
     34 H10         -1.3700    -0.0310     1.7780 ha         1 33M       0.119000
     35 H11         -2.4820     1.6400     3.2130 ha         1 33M       0.115000
     36 H12         -4.6600     2.6370     2.5320 ha         1 33M       0.115000
     37 H13         -5.7300     1.9480     0.3990 ha         1 33M       0.115000
     38 H14         -5.7300     0.6100    -1.6310 ha         1 33M       0.117000
     39 H15         -4.6500    -1.0680    -3.1090 ha         1 33M       0.119000
     40 H16         -2.4600    -2.0550    -2.4820 ha         1 33M       0.125000
@<TRIPOS>BOND
     1     1     2 ar  
     2     1    12 ar  
     3     1    25 1   
     4     2     3 ar  
     5     2     9 ar  
     6     3     4 1   
     7     3     5 ar  
     8     4    26 1   
     9     4    27 1   
    10     5     6 ar  
    11     6     7 1   
    12     6     8 ar  
    13     7    28 1   
    14     7    29 1   
    15     8     9 ar  
    16     9    10 ar  
    17    10    11 ar  
    18    11    12 ar  
    19    11    30 1   
    20    12    13 1   
    21    13    14 1   
    22    13    15 1   
    23    14    31 1   
    24    14    32 1   
    25    14    33 1   
    26    15    16 ar  
    27    15    24 ar  
    28    16    17 ar  
    29    16    21 ar  
    30    17    18 ar  
    31    17    34 1   
    32    18    19 ar  
    33    18    35 1   
    34    19    20 ar  
    35    19    36 1   
    36    20    21 ar  
    37    20    37 1   
    38    21    22 ar  
    39    22    23 ar  
    40    22    38 1   
    41    23    24 ar  
    42    23    39 1   
    43    24    40 1   
@<TRIPOS>SUBSTRUCTURE
     1 33M         1 TEMP              0 ****  ****    0 ROOT
