@<TRIPOS>MOLECULE
33M
   40    43     1     0     0
SMALL
abcg2


@<TRIPOS>ATOM
      1 CAL          1.3170    -1.2380     0.2200 ca         1 33M      -0.118000
      2 C5           2.4670    -0.4390     0.1920 ca         1 33M      -0.230000
      3 C6           3.7270    -0.7830     0.8030 ca         1 33M       0.436900
      4 NAC          3.8860    -1.9400     1.4560 nv         1 33M      -1.077900
      5 N1           4.7610     0.0230     0.7170 nb         1 33M      -0.339000
      6 C2           4.6070     1.1830     0.0440 ca         1 33M       0.413900
      7 NAB          5.6990     1.9850     0.0250 nv         1 33M      -1.051900
      8 N3           3.5130     1.6130    -0.5460 nb         1 33M      -0.258000
      9 C4           2.4400     0.8000    -0.4700 ca         1 33M       0.110000
     10 NAM          1.3130     1.2230    -1.0730 nb         1 33M      -0.115000
     11 CAK          0.2480     0.4660    -1.0460 ca         1 33M       0.099900
     12 CAR          0.1680    -0.8000    -0.4130 ca         1 33M       0.237000
     13 NAX         -0.9930    -1.5420    -0.4660 nh         1 33M      -0.858200
     14 CAA         -1.0320    -2.8500     0.1510 c3         1 33M       0.219100
     15 CAS         -2.2280    -0.9140    -0.7670 ca         1 33M       0.274000
     16 CAV         -2.8420    -0.0430     0.1780 ca         1 33M      -0.045000
     17 CAJ         -2.2690     0.2370     1.4410 ca         1 33M      -0.097000
     18 CAE         -2.8920     1.0840     2.3180 ca         1 33M      -0.102000
     19 CAD         -4.1160     1.6940     1.9780 ca         1 33M      -0.103000
     20 CAH         -4.6970     1.4370     0.7670 ca         1 33M      -0.098000
     21 CAT         -4.0810     0.5640    -0.1600 ca         1 33M      -0.034000
     22 CAI         -4.6800     0.2740    -1.4090 ca         1 33M      -0.092000
     23 CAF         -4.0760    -0.5790    -2.2890 ca         1 33M      -0.107000
     24 CAG         -2.8380    -1.1690    -1.9660 ca         1 33M      -0.098000
     25 H1           1.3240    -2.1910     0.7330 ha         1 33M       0.106000
     26 H2           3.1150    -2.5380     1.6890 hn         1 33M       0.494500
     27 H3           4.7480    -2.1020     1.9480 hn         1 33M       0.494500
     28 H4           6.5900     1.5700     0.2330 hn         1 33M       0.487500
     29 H5           5.7080     2.7460    -0.6320 hn         1 33M       0.487500
     30 H6          -0.6250     0.8580    -1.5590 h4         1 33M       0.030100
     31 H7          -0.9180    -2.8090     1.2400 h1         1 33M       0.036367
     32 H8          -1.9870    -3.3190    -0.0720 h1         1 33M       0.036367
     33 H9          -0.2450    -3.4920    -0.2500 h1         1 33M       0.036367
     34 H10         -1.3320    -0.2250     1.7210 ha         1 33M       0.119000
     35 H11         -2.4430     1.2860     3.2820 ha         1 33M       0.115000
     36 H12         -4.5950     2.3640     2.6800 ha         1 33M       0.115000
     37 H13         -5.6420     1.8960     0.5030 ha         1 33M       0.115000
     38 H14         -5.6290     0.7360    -1.6550 ha         1 33M       0.117000
     39 H15         -4.5370    -0.7990    -3.2420 ha         1 33M       0.119000
     40 H16         -2.3550    -1.8310    -2.6740 ha         1 33M       0.125000
@<TRIPOS>BOND
     1     1     2 ar  
     2     1    12 ar  
     3     1    25 1   
     4     2     3 ar  
     5     2     9 ar  
     6     3     4 1   
     7     3     5 ar  
     8     4    26 1   
     9     4    27 1   
    10     5     6 ar  
    11     6     7 1   
    12     6     8 ar  
    13     7    28 1   
    14     7    29 1   
    15     8     9 ar  
    16     9    10 ar  
    17    10    11 ar  
    18    11    12 ar  
    19    11    30 1   
    20    12    13 1   
    21    13    14 1   
    22    13    15 1   
    23    14    31 1   
    24    14    32 1   
    25    14    33 1   
    26    15    16 ar  
    27    15    24 ar  
    28    16    17 ar  
    29    16    21 ar  
    30    17    18 ar  
    31    17    34 1   
    32    18    19 ar  
    33    18    35 1   
    34    19    20 ar  
    35    19    36 1   
    36    20    21 ar  
    37    20    37 1   
    38    21    22 ar  
    39    22    23 ar  
    40    22    38 1   
    41    23    24 ar  
    42    23    39 1   
    43    24    40 1   
@<TRIPOS>SUBSTRUCTURE
     1 33M         1 TEMP              0 ****  ****    0 ROOT
