@<TRIPOS>MOLECULE
33N
   44    46     1     0     0
SMALL
No Charge or Current Charge


@<TRIPOS>ATOM
      1 C4           0.5350    -0.5970     0.1800 c3         1 33N      -0.088400
      2 C5           2.5820     2.2830     0.9570 ca         1 33N      -0.102500
      3 C6           2.4290     1.4410    -1.3190 ca         1 33N      -0.102500
      4 C7           4.1870    -1.2790     1.1130 ca         1 33N      -0.102500
      5 C8           2.9890    -2.0230    -0.8660 ca         1 33N      -0.102500
      6 C10          2.9180     3.5550     0.4630 ca         1 33N      -0.108250
      7 C13          4.0210    -2.9360    -1.1440 ca         1 33N      -0.108250
      8 C15          3.0090     3.7710    -0.9220 ca         1 33N      -0.108000
      9 C17         -3.0730     0.5170     0.6730 c          1 33N       0.620700
     10 C20         -5.5950     0.5170     0.4870 ca         1 33N      -0.022000
     11 C21         -4.3680    -1.2490    -0.6190 ca         1 33N       0.356900
     12 C22         -6.7710    -0.0740     0.0000 ca         1 33N      -0.172000
     13 C24         -6.6810    -1.2360    -0.7800 ca         1 33N       0.351900
     14 O19         -3.0590     1.5290     1.3600 o          1 33N      -0.596100
     15 C18         -4.3570    -0.0830     0.1720 ca         1 33N      -0.206600
     16 N23         -5.5020    -1.8200    -1.0890 nb         1 33N      -0.671000
     17 N14         -1.9020    -0.1220     0.3270 ns         1 33N      -0.503900
     18 C9          -0.5690     0.3300     0.7280 c3         1 33N       0.095000
     19 C1           1.9620    -0.1670     0.6140 c3         1 33N       0.035900
     20 C3           3.0580    -1.1870     0.2720 ca         1 33N      -0.076800
     21 C16          5.1350    -3.0230    -0.2940 ca         1 33N      -0.108000
     22 C12          5.2180    -2.1920     0.8340 ca         1 33N      -0.108250
     23 C2           2.3320     1.2150     0.0700 ca         1 33N      -0.076800
     24 C11          2.7650     2.7130    -1.8120 ca         1 33N      -0.108250
     25 H4           0.3480    -1.6180     0.5370 hc         1 33N       0.048700
     26 H4A          0.4600    -0.6180    -0.9130 hc         1 33N       0.048700
     27 H5           2.5150     2.1310     2.0320 ha         1 33N       0.109500
     28 H6           2.2460     0.6300    -2.0190 ha         1 33N       0.109500
     29 H7           4.2670    -0.6370     1.9880 ha         1 33N       0.109500
     30 H8           2.1440    -1.9710    -1.5470 ha         1 33N       0.109500
     31 H10          3.1090     4.3740     1.1540 ha         1 33N       0.112250
     32 H13          3.9580    -3.5750    -2.0220 ha         1 33N       0.112250
     33 H15          3.2700     4.7560    -1.3040 ha         1 33N       0.113000
     34 H21         -3.4460    -1.7580    -0.8960 h4         1 33N       0.017100
     35 H22         -7.7430     0.3580     0.2210 ha         1 33N       0.129000
     36 H24         -7.5790    -1.7150    -1.1710 h4         1 33N       0.022100
     37 HN14        -1.9760    -0.9550    -0.2430 hn         1 33N       0.312500
     38 H9          -0.5180     0.3550     1.8250 h1         1 33N       0.062700
     39 H9A         -0.4150     1.3510     0.3540 h1         1 33N       0.062700
     40 H1           1.9230    -0.1050     1.7090 hc         1 33N       0.053700
     41 H16          5.9340    -3.7290    -0.5120 ha         1 33N       0.113000
     42 H12          6.0820    -2.2540     1.4920 ha         1 33N       0.112250
     43 H11          2.8380     2.8780    -2.8850 ha         1 33N       0.112250
     44 H20         -5.6480     1.4190     1.0940 ha         1 33N       0.141000
@<TRIPOS>BOND
     1     1    18 1   
     2     1    19 1   
     3     1    25 1   
     4     1    26 1   
     5     2     6 ar  
     6     2    23 ar  
     7     2    27 1   
     8     3    23 ar  
     9     3    24 ar  
    10     3    28 1   
    11     4    20 ar  
    12     4    22 ar  
    13     4    29 1   
    14     5     7 ar  
    15     5    20 ar  
    16     5    30 1   
    17     6     8 ar  
    18     6    31 1   
    19     7    21 ar  
    20     7    32 1   
    21     8    24 ar  
    22     8    33 1   
    23     9    14 2   
    24     9    15 1   
    25     9    17 1   
    26    10    12 ar  
    27    10    15 ar  
    28    10    44 1   
    29    11    15 ar  
    30    11    16 ar  
    31    11    34 1   
    32    12    13 ar  
    33    12    35 1   
    34    13    16 ar  
    35    13    36 1   
    36    17    18 1   
    37    17    37 1   
    38    18    38 1   
    39    18    39 1   
    40    19    20 1   
    41    19    23 1   
    42    19    40 1   
    43    21    22 ar  
    44    21    41 1   
    45    22    42 1   
    46    24    43 1   
@<TRIPOS>SUBSTRUCTURE
     1 33N         1 TEMP              0 ****  ****    0 ROOT
