@<TRIPOS>MOLECULE
33N
   44    46     1     0     0
SMALL
bcc


@<TRIPOS>ATOM
      1 C4           0.4900    -0.6000     0.3770 c3         1 33N      -0.088400
      2 C5           2.9780     2.1340     0.9320 ca         1 33N      -0.120500
      3 C6           1.8630     1.6370    -1.1250 ca         1 33N      -0.120500
      4 C7           3.9670    -1.5040     1.1690 ca         1 33N      -0.120500
      5 C8           2.9850    -1.6710    -1.0060 ca         1 33N      -0.120500
      6 C10          3.3370     3.3830     0.4420 ca         1 33N      -0.126250
      7 C13          3.9780    -2.5630    -1.3860 ca         1 33N      -0.126250
      8 C15          2.9580     3.7640    -0.8380 ca         1 33N      -0.126000
      9 C17         -2.8540     0.5620     0.1300 c          1 33N       0.687700
     10 C20         -5.3270     0.5960    -0.1460 ca         1 33N      -0.040000
     11 C21         -4.2400    -1.5160    -0.3260 ca         1 33N       0.422200
     12 C22         -6.5240    -0.0590    -0.3740 ca         1 33N      -0.255300
     13 C24         -6.4990    -1.4320    -0.5740 ca         1 33N       0.417200
     14 O19         -2.7120     1.7260    -0.2190 o          1 33N      -0.596100
     15 C18         -4.1510    -0.1450    -0.1010 ca         1 33N      -0.271900
     16 N23         -5.3820    -2.1490    -0.5600 nb         1 33N      -0.671000
     17 N14         -1.9000    -0.1620     0.7340 ns         1 33N      -0.570900
     18 C9          -0.5600     0.3090     1.0040 c3         1 33N       0.095000
     19 C1           1.9090    -0.1320     0.7080 c3         1 33N       0.035900
     20 C3           2.9660    -1.1280     0.2770 ca         1 33N      -0.076800
     21 C16          4.9730    -2.9290    -0.4880 ca         1 33N      -0.126000
     22 C12          4.9640    -2.3960     0.7930 ca         1 33N      -0.126250
     23 C2           2.2400     1.2420     0.1570 ca         1 33N      -0.076800
     24 C11          2.2180     2.8860    -1.6190 ca         1 33N      -0.126250
     25 H4           0.3650    -1.6170     0.7560 hc         1 33N       0.048700
     26 H4A          0.3270    -0.6510    -0.7030 hc         1 33N       0.048700
     27 H5           3.2770     1.8480     1.9340 ha         1 33N       0.127500
     28 H6           1.2750     0.9780    -1.7520 ha         1 33N       0.127500
     29 H7           3.9660    -1.0980     2.1740 ha         1 33N       0.127500
     30 H8           2.2190    -1.4050    -1.7250 ha         1 33N       0.127500
     31 H10          3.9090     4.0600     1.0640 ha         1 33N       0.130250
     32 H13          3.9720    -2.9750    -2.3870 ha         1 33N       0.130250
     33 H15          3.2310     4.7390    -1.2200 ha         1 33N       0.131000
     34 H21         -3.3480    -2.1330    -0.3450 h4         1 33N       0.017100
     35 H22         -7.4610     0.4800    -0.4020 ha         1 33N       0.147000
     36 H24         -7.4200    -1.9740    -0.7580 h4         1 33N       0.022100
     37 HN14        -2.1380    -1.0730     1.0940 hn         1 33N       0.312500
     38 H9          -0.4040     0.3650     2.0850 h1         1 33N       0.062700
     39 H9A         -0.4710     1.3230     0.6180 h1         1 33N       0.062700
     40 H1           1.9730    -0.0580     1.7990 hc         1 33N       0.053700
     41 H16          5.7480    -3.6250    -0.7840 ha         1 33N       0.131000
     42 H12          5.7300    -2.6750     1.5050 ha         1 33N       0.130250
     43 H11          1.9110     3.1720    -2.6160 ha         1 33N       0.130250
     44 H20         -5.3060     1.6670     0.0040 ha         1 33N       0.159000
@<TRIPOS>BOND
     1     1    18 1   
     2     1    19 1   
     3     1    25 1   
     4     1    26 1   
     5     2     6 ar  
     6     2    23 ar  
     7     2    27 1   
     8     3    23 ar  
     9     3    24 ar  
    10     3    28 1   
    11     4    20 ar  
    12     4    22 ar  
    13     4    29 1   
    14     5     7 ar  
    15     5    20 ar  
    16     5    30 1   
    17     6     8 ar  
    18     6    31 1   
    19     7    21 ar  
    20     7    32 1   
    21     8    24 ar  
    22     8    33 1   
    23     9    14 2   
    24     9    15 1   
    25     9    17 1   
    26    10    12 ar  
    27    10    15 ar  
    28    10    44 1   
    29    11    15 ar  
    30    11    16 ar  
    31    11    34 1   
    32    12    13 ar  
    33    12    35 1   
    34    13    16 ar  
    35    13    36 1   
    36    17    18 1   
    37    17    37 1   
    38    18    38 1   
    39    18    39 1   
    40    19    20 1   
    41    19    23 1   
    42    19    40 1   
    43    21    22 ar  
    44    21    41 1   
    45    22    42 1   
    46    24    43 1   
@<TRIPOS>SUBSTRUCTURE
     1 33N         1 TEMP              0 ****  ****    0 ROOT
