@<TRIPOS>MOLECULE
33O
   94    93     1     0     0
SMALL
No Charge or Current Charge


@<TRIPOS>ATOM
      1 O19         18.0440     0.5100     0.2620 oh         1 33O      -0.709500
      2 C39         17.1670     1.2030    -0.6480 c3         1 33O       0.163600
      3 C40         16.2170     0.2240    -1.3900 c3         1 33O       0.160600
      4 O20         15.2790    -0.3350    -0.4470 os         1 33O      -0.434500
      5 C41         14.3450    -1.2720    -1.0200 c3         1 33O       0.161600
      6 C42         13.3930    -1.7810     0.0890 c3         1 33O       0.162100
      7 O21         12.4840    -0.7230     0.4520 os         1 33O      -0.435500
      8 C43         11.5460    -1.0720     1.4890 c3         1 33O       0.162100
      9 C44         10.6270     0.1410     1.7690 c3         1 33O       0.161600
     10 O22          9.7180     0.3090     0.6630 os         1 33O      -0.435500
     11 C45          8.8100     1.4210     0.7990 c3         1 33O       0.161600
     12 C46          7.8900     1.4770    -0.4430 c3         1 33O       0.162600
     13 O23          6.9520     0.3840    -0.3850 os         1 33O      -0.435500
     14 C47          6.0400     0.3200    -1.4990 c3         1 33O       0.162600
     15 C48          5.0880    -0.8840    -1.3050 c3         1 33O       0.161600
     16 O24          4.1600    -0.5850    -0.2430 os         1 33O      -0.434500
     17 C49          3.2220    -1.6400     0.0450 c3         1 33O       0.162100
     18 C50          2.2840    -1.1850     1.1880 c3         1 33O       0.161600
     19 O25          1.3790    -0.1830     0.6840 os         1 33O      -0.434000
     20 C51          0.4550     0.3330     1.6630 c3         1 33O       0.162600
     21 C52         -0.4600     1.3840     0.9890 c3         1 33O       0.162600
     22 O26         -1.3830     0.7100     0.1100 os         1 33O      -0.434000
     23 C53         -2.2890     1.5860    -0.5890 c3         1 33O       0.161600
     24 C54         -3.2260     0.7370    -1.4810 c3         1 33O       0.162100
     25 O27         -4.1620     0.0300    -0.6430 os         1 33O      -0.434500
     26 C55         -5.0880    -0.8100    -1.3600 c3         1 33O       0.161600
     27 C56         -6.0360    -1.4960    -0.3470 c3         1 33O       0.162600
     28 O28         -6.9510    -0.5140     0.1800 os         1 33O      -0.435500
     29 C57         -7.8850    -1.0290     1.1500 c3         1 33O       0.162600
     30 C58         -8.8090     0.1190     1.6210 c3         1 33O       0.161600
     31 O29         -9.7210     0.4560     0.5570 os         1 33O      -0.435500
     32 C59        -10.6340     1.5270     0.8700 c3         1 33O       0.161600
     33 C60        -11.5580     1.7760    -0.3460 c3         1 33O       0.162100
     34 O30        -12.4910     0.6840    -0.4600 os         1 33O      -0.435500
     35 C61        -13.4050     0.7930    -1.5700 c3         1 33O       0.162100
     36 C62        -14.3500    -0.4320    -1.5690 c3         1 33O       0.161600
     37 O31        -15.2820    -0.3090    -0.4750 os         1 33O      -0.434500
     38 C63        -16.2140    -1.4030    -0.3590 c3         1 33O       0.160600
     39 C64        -17.1610    -1.1450     0.8440 c3         1 33O       0.163600
     40 O32        -18.0440    -0.0320     0.5990 oh         1 33O      -0.709500
     41 H1          18.5680     1.1980     0.7340 ho         1 33O       0.499000
     42 H2          16.5630     1.9460    -0.1100 h1         1 33O       0.024950
     43 H3          17.7600     1.7440    -1.3980 h1         1 33O       0.024950
     44 H4          15.6830     0.7750    -2.1750 h1         1 33O       0.025950
     45 H5          16.8080    -0.5660    -1.8710 h1         1 33O       0.025950
     46 H6          13.7580    -0.8040    -1.8210 h1         1 33O       0.027700
     47 H7          14.8820    -2.1290    -1.4470 h1         1 33O       0.027700
     48 H8          12.8350    -2.6460    -0.2940 h1         1 33O       0.027950
     49 H9          13.9820    -2.1100     0.9550 h1         1 33O       0.027950
     50 H10         10.9340    -1.9350     1.1940 h1         1 33O       0.027950
     51 H11         12.0800    -1.3320     2.4120 h1         1 33O       0.027950
     52 H12         10.0670    -0.0450     2.6950 h1         1 33O       0.028200
     53 H13         11.2400     1.0400     1.9170 h1         1 33O       0.028200
     54 H14          8.1980     1.3210     1.7050 h1         1 33O       0.028200
     55 H15          9.3710     2.3620     0.8680 h1         1 33O       0.028200
     56 H16          7.3550     2.4360    -0.4440 h1         1 33O       0.027700
     57 H17          8.5000     1.4260    -1.3550 h1         1 33O       0.027700
     58 H18          5.4510     1.2440    -1.5810 h1         1 33O       0.027700
     59 H19          6.5950     0.1850    -2.4360 h1         1 33O       0.027700
     60 H20          4.5460    -1.0620    -2.2430 h1         1 33O       0.027450
     61 H21          5.6760    -1.7830    -1.0740 h1         1 33O       0.027450
     62 H22          2.6250    -1.8910    -0.8420 h1         1 33O       0.027450
     63 H23          3.7550    -2.5450     0.3640 h1         1 33O       0.027450
     64 H24          1.7220    -2.0550     1.5520 h1         1 33O       0.027450
     65 H25          2.8830    -0.7930     2.0210 h1         1 33O       0.027450
     66 H26         -0.1600    -0.4710     2.0870 h1         1 33O       0.027200
     67 H27          1.0020     0.8150     2.4840 h1         1 33O       0.027200
     68 H28         -1.0090     1.9270     1.7690 h1         1 33O       0.027200
     69 H29          0.1550     2.1060     0.4370 h1         1 33O       0.027200
     70 H30         -2.8900     2.1770     0.1160 h1         1 33O       0.027450
     71 H31         -1.7280     2.2820    -1.2260 h1         1 33O       0.027450
     72 H32         -3.7610     1.4050    -2.1690 h1         1 33O       0.027450
     73 H33         -2.6280     0.0380    -2.0810 h1         1 33O       0.027450
     74 H34         -5.6790    -0.2250    -2.0770 h1         1 33O       0.027450
     75 H35         -4.5450    -1.5850    -1.9160 h1         1 33O       0.027450
     76 H36         -6.5900    -2.2910    -0.8630 h1         1 33O       0.027700
     77 H37         -5.4450    -1.9560     0.4560 h1         1 33O       0.027700
     78 H38         -8.4930    -1.8380     0.7220 h1         1 33O       0.027700
     79 H39         -7.3470    -1.4300     2.0190 h1         1 33O       0.027700
     80 H40         -9.3660    -0.2160     2.5060 h1         1 33O       0.028200
     81 H41         -8.2000     0.9860     1.9090 h1         1 33O       0.028200
     82 H42        -11.2440     1.2820     1.7500 h1         1 33O       0.028200
     83 H43        -10.0770     2.4480     1.0870 h1         1 33O       0.028200
     84 H44        -12.0960     2.7210    -0.1940 h1         1 33O       0.027950
     85 H45        -10.9490     1.8720    -1.2550 h1         1 33O       0.027950
     86 H46        -13.9970     1.7150    -1.5050 h1         1 33O       0.027950
     87 H47        -12.8500     0.8100    -2.5170 h1         1 33O       0.027950
     88 H48        -14.8900    -0.4630    -2.5240 h1         1 33O       0.027700
     89 H49        -13.7580    -1.3530    -1.4810 h1         1 33O       0.027700
     90 H50        -16.8080    -1.5120    -1.2760 h1         1 33O       0.025950
     91 H51        -15.6750    -2.3450    -0.1890 h1         1 33O       0.025950
     92 H52        -17.7490    -2.0550     1.0230 h1         1 33O       0.024950
     93 H53        -16.5550    -0.9640     1.7420 h1         1 33O       0.024950
     94 H54        -18.5650     0.1070     1.4230 ho         1 33O       0.499000
@<TRIPOS>BOND
     1     1     2 1   
     2     1    41 1   
     3     2     3 1   
     4     2    42 1   
     5     2    43 1   
     6     3     4 1   
     7     3    44 1   
     8     3    45 1   
     9     4     5 1   
    10     5     6 1   
    11     5    46 1   
    12     5    47 1   
    13     6     7 1   
    14     6    48 1   
    15     6    49 1   
    16     7     8 1   
    17     8     9 1   
    18     8    50 1   
    19     8    51 1   
    20     9    10 1   
    21     9    52 1   
    22     9    53 1   
    23    10    11 1   
    24    11    12 1   
    25    11    54 1   
    26    11    55 1   
    27    12    13 1   
    28    12    56 1   
    29    12    57 1   
    30    13    14 1   
    31    14    15 1   
    32    14    58 1   
    33    14    59 1   
    34    15    16 1   
    35    15    60 1   
    36    15    61 1   
    37    16    17 1   
    38    17    18 1   
    39    17    62 1   
    40    17    63 1   
    41    18    19 1   
    42    18    64 1   
    43    18    65 1   
    44    19    20 1   
    45    20    21 1   
    46    20    66 1   
    47    20    67 1   
    48    21    22 1   
    49    21    68 1   
    50    21    69 1   
    51    22    23 1   
    52    23    24 1   
    53    23    70 1   
    54    23    71 1   
    55    24    25 1   
    56    24    72 1   
    57    24    73 1   
    58    25    26 1   
    59    26    27 1   
    60    26    74 1   
    61    26    75 1   
    62    27    28 1   
    63    27    76 1   
    64    27    77 1   
    65    28    29 1   
    66    29    30 1   
    67    29    78 1   
    68    29    79 1   
    69    30    31 1   
    70    30    80 1   
    71    30    81 1   
    72    31    32 1   
    73    32    33 1   
    74    32    82 1   
    75    32    83 1   
    76    33    34 1   
    77    33    84 1   
    78    33    85 1   
    79    34    35 1   
    80    35    36 1   
    81    35    86 1   
    82    35    87 1   
    83    36    37 1   
    84    36    88 1   
    85    36    89 1   
    86    37    38 1   
    87    38    39 1   
    88    38    90 1   
    89    38    91 1   
    90    39    40 1   
    91    39    92 1   
    92    39    93 1   
    93    40    94 1   
@<TRIPOS>SUBSTRUCTURE
     1 33O         1 TEMP              0 ****  ****    0 ROOT
