@<TRIPOS>MOLECULE
33O
   94    93     1     0     0
SMALL
bcc


@<TRIPOS>ATOM
      1 O19         16.6530     1.6380    -0.3560 oh         1 33O      -0.587300
      2 C39         15.9190     1.3990    -1.5350 c3         1 33O       0.140400
      3 C40         15.2890     0.0310    -1.4680 c3         1 33O       0.137400
      4 O20         14.3310    -0.0050    -0.4410 os         1 33O      -0.388100
      5 C41         13.7010    -1.2550    -0.3260 c3         1 33O       0.138400
      6 C42         12.7280    -1.2280     0.8250 c3         1 33O       0.138900
      7 O21         11.6880    -0.3260     0.5450 os         1 33O      -0.389100
      8 C43         10.7900    -0.1830     1.6150 c3         1 33O       0.138900
      9 C44          9.7340     0.8330     1.2630 c3         1 33O       0.138400
     10 O22          8.9130     0.3370     0.2360 os         1 33O      -0.389100
     11 C45          7.9760     1.2840    -0.2110 c3         1 33O       0.138400
     12 C46          7.0660     0.6570    -1.2360 c3         1 33O       0.139400
     13 O23          6.2520    -0.3070    -0.6180 os         1 33O      -0.389100
     14 C47          5.3520    -0.9170    -1.5070 c3         1 33O       0.139400
     15 C48          4.4640    -1.8710    -0.7510 c3         1 33O       0.138400
     16 O24          3.6530    -1.1520     0.1410 os         1 33O      -0.388100
     17 C49          2.7740    -1.9740     0.8660 c3         1 33O       0.138900
     18 C50          1.9490    -1.1330     1.8050 c3         1 33O       0.138400
     19 O25          1.1290    -0.2610     1.0690 os         1 33O      -0.387600
     20 C51          0.3050     0.5280     1.8890 c3         1 33O       0.139400
     21 C52         -0.4980     1.4810     1.0420 c3         1 33O       0.139400
     22 O26         -1.3710     0.7620     0.2100 os         1 33O      -0.387600
     23 C53         -2.1890     1.5990    -0.5680 c3         1 33O       0.138400
     24 C54         -3.0480     0.7690    -1.4860 c3         1 33O       0.138900
     25 O27         -3.9270    -0.0240    -0.7300 os         1 33O      -0.388100
     26 C55         -4.7970    -0.7810    -1.5330 c3         1 33O       0.138400
     27 C56         -5.6570    -1.6640    -0.6660 c3         1 33O       0.139400
     28 O28         -6.4830    -0.8760     0.1520 os         1 33O      -0.389100
     29 C57         -7.3520    -1.6460     0.9420 c3         1 33O       0.139400
     30 C58         -8.1560    -0.7490     1.8470 c3         1 33O       0.138400
     31 O29         -8.9810     0.0910     1.0800 os         1 33O      -0.389100
     32 C59         -9.8050     0.9070     1.8740 c3         1 33O       0.138400
     33 C60        -10.6100     1.8310     0.9990 c3         1 33O       0.138900
     34 O30        -11.4790     1.0850     0.1860 os         1 33O      -0.389100
     35 C61        -12.3060     1.8960    -0.6090 c3         1 33O       0.138900
     36 C62        -13.1510     1.0360    -1.5140 c3         1 33O       0.138400
     37 O31        -14.0170     0.2410    -0.7460 os         1 33O      -0.388100
     38 C63        -14.8560    -0.5630    -1.5370 c3         1 33O       0.137400
     39 C64        -15.6990    -1.4500    -0.6570 c3         1 33O       0.140400
     40 O32        -16.5710    -0.6580     0.1170 oh         1 33O      -0.587300
     41 H1          17.0440     2.5140    -0.4190 ho         1 33O       0.400000
     42 H2          15.1350     2.1520    -1.6870 h1         1 33O       0.024950
     43 H3          16.5580     1.4210    -2.4270 h1         1 33O       0.024950
     44 H4          14.8300    -0.1810    -2.4440 h1         1 33O       0.025950
     45 H5          16.0640    -0.7320    -1.3090 h1         1 33O       0.025950
     46 H6          13.1780    -1.5210    -1.2560 h1         1 33O       0.027700
     47 H7          14.4340    -2.0520    -0.1360 h1         1 33O       0.027700
     48 H8          12.3420    -2.2460     0.9740 h1         1 33O       0.027950
     49 H9          13.2530    -0.9490     1.7500 h1         1 33O       0.027950
     50 H10         10.3190    -1.1440     1.8690 h1         1 33O       0.027950
     51 H11         11.3060     0.1660     2.5200 h1         1 33O       0.027950
     52 H12          9.1480     1.0460     2.1680 h1         1 33O       0.028200
     53 H13         10.2140     1.7770     0.9660 h1         1 33O       0.028200
     54 H14          7.3790     1.6760     0.6250 h1         1 33O       0.028200
     55 H15          8.4780     2.1440    -0.6750 h1         1 33O       0.028200
     56 H16          6.4590     1.4540    -1.6880 h1         1 33O       0.027700
     57 H17          7.6610     0.2130    -2.0470 h1         1 33O       0.027700
     58 H18          4.7370    -0.1660    -2.0250 h1         1 33O       0.027700
     59 H19          5.8830    -1.4830    -2.2850 h1         1 33O       0.027700
     60 H20          3.8570    -2.4270    -1.4800 h1         1 33O       0.027450
     61 H21          5.0780    -2.6130    -0.2180 h1         1 33O       0.027450
     62 H22          2.1140    -2.5380     0.1900 h1         1 33O       0.027450
     63 H23          3.3230    -2.7140     1.4650 h1         1 33O       0.027450
     64 H24          1.3490    -1.8090     2.4300 h1         1 33O       0.027450
     65 H25          2.6080    -0.5730     2.4850 h1         1 33O       0.027450
     66 H26         -0.3680    -0.0990     2.4910 h1         1 33O       0.027200
     67 H27          0.9010     1.1230     2.5950 h1         1 33O       0.027200
     68 H28         -1.0520     2.1480     1.7170 h1         1 33O       0.027200
     69 H29          0.1760     2.1170     0.4500 h1         1 33O       0.027200
     70 H30         -2.8220     2.2330     0.0700 h1         1 33O       0.027450
     71 H31         -1.5860     2.2760    -1.1890 h1         1 33O       0.027450
     72 H32         -3.5990     1.4540    -2.1450 h1         1 33O       0.027450
     73 H33         -2.4130     0.1460    -2.1330 h1         1 33O       0.027450
     74 H34         -5.4310    -0.1280    -2.1500 h1         1 33O       0.027450
     75 H35         -4.2390    -1.4270    -2.2240 h1         1 33O       0.027450
     76 H36         -6.2520    -2.3090    -1.3270 h1         1 33O       0.027700
     77 H37         -5.0230    -2.3280    -0.0610 h1         1 33O       0.027700
     78 H38         -8.0250    -2.2480     0.3150 h1         1 33O       0.027700
     79 H39         -6.7930    -2.3500     1.5750 h1         1 33O       0.027700
     80 H40         -8.7510    -1.3880     2.5140 h1         1 33O       0.028200
     81 H41         -7.4830    -0.1600     2.4880 h1         1 33O       0.028200
     82 H42        -10.4760     0.2990     2.4970 h1         1 33O       0.028200
     83 H43         -9.2080     1.5250     2.5590 h1         1 33O       0.028200
     84 H44        -11.1680     2.5150     1.6540 h1         1 33O       0.027950
     85 H45         -9.9380     2.4540     0.3900 h1         1 33O       0.027950
     86 H46        -12.9500     2.5320     0.0160 h1         1 33O       0.027950
     87 H47        -11.7120     2.5700    -1.2420 h1         1 33O       0.027950
     88 H48        -13.7110     1.7010    -2.1860 h1         1 33O       0.027700
     89 H49        -12.5040     0.4130    -2.1490 h1         1 33O       0.027700
     90 H50        -15.5010     0.0550    -2.1790 h1         1 33O       0.025950
     91 H51        -14.2680    -1.2090    -2.2040 h1         1 33O       0.025950
     92 H52        -16.2440    -2.1380    -1.3150 h1         1 33O       0.024950
     93 H53        -15.0420    -2.0660    -0.0290 h1         1 33O       0.024950
     94 H54        -17.0900    -1.2440     0.6760 ho         1 33O       0.400000
@<TRIPOS>BOND
     1     1     2 1   
     2     1    41 1   
     3     2     3 1   
     4     2    42 1   
     5     2    43 1   
     6     3     4 1   
     7     3    44 1   
     8     3    45 1   
     9     4     5 1   
    10     5     6 1   
    11     5    46 1   
    12     5    47 1   
    13     6     7 1   
    14     6    48 1   
    15     6    49 1   
    16     7     8 1   
    17     8     9 1   
    18     8    50 1   
    19     8    51 1   
    20     9    10 1   
    21     9    52 1   
    22     9    53 1   
    23    10    11 1   
    24    11    12 1   
    25    11    54 1   
    26    11    55 1   
    27    12    13 1   
    28    12    56 1   
    29    12    57 1   
    30    13    14 1   
    31    14    15 1   
    32    14    58 1   
    33    14    59 1   
    34    15    16 1   
    35    15    60 1   
    36    15    61 1   
    37    16    17 1   
    38    17    18 1   
    39    17    62 1   
    40    17    63 1   
    41    18    19 1   
    42    18    64 1   
    43    18    65 1   
    44    19    20 1   
    45    20    21 1   
    46    20    66 1   
    47    20    67 1   
    48    21    22 1   
    49    21    68 1   
    50    21    69 1   
    51    22    23 1   
    52    23    24 1   
    53    23    70 1   
    54    23    71 1   
    55    24    25 1   
    56    24    72 1   
    57    24    73 1   
    58    25    26 1   
    59    26    27 1   
    60    26    74 1   
    61    26    75 1   
    62    27    28 1   
    63    27    76 1   
    64    27    77 1   
    65    28    29 1   
    66    29    30 1   
    67    29    78 1   
    68    29    79 1   
    69    30    31 1   
    70    30    80 1   
    71    30    81 1   
    72    31    32 1   
    73    32    33 1   
    74    32    82 1   
    75    32    83 1   
    76    33    34 1   
    77    33    84 1   
    78    33    85 1   
    79    34    35 1   
    80    35    36 1   
    81    35    86 1   
    82    35    87 1   
    83    36    37 1   
    84    36    88 1   
    85    36    89 1   
    86    37    38 1   
    87    38    39 1   
    88    38    90 1   
    89    38    91 1   
    90    39    40 1   
    91    39    92 1   
    92    39    93 1   
    93    40    94 1   
@<TRIPOS>SUBSTRUCTURE
     1 33O         1 TEMP              0 ****  ****    0 ROOT
