@<TRIPOS>MOLECULE
33R
   40    42     1     0     0
SMALL
bcc


@<TRIPOS>ATOM
      1 C15         -3.8730     1.3610     0.0800 ca         1 33R      -0.079500
      2 C17         -6.2150     1.9160     0.2850 ca         1 33R      -0.124000
      3 C20         -5.5410    -0.3810     0.1590 ca         1 33R       0.021400
      4 C22         -4.2160     0.0110     0.0640 ca         1 33R      -0.088000
      5 C28          3.2480    -1.4580     1.5220 ca         1 33R      -0.143000
      6 CL21        -5.9210    -2.0620     0.1410 cl         1 33R      -0.098400
      7 C01          5.1490    -2.2790     2.7360 ca         1 33R      -0.149000
      8 C02          5.9000    -2.2110     1.5770 ca         1 33R      -0.088000
      9 C03          5.3040    -1.7860     0.3970 ca         1 33R      -0.116200
     10 N04          6.1580    -1.8090    -0.7820 no         1 33R       0.341200
     11 O05          7.2960    -1.4290    -0.6580 o          1 33R      -0.213000
     12 O06          5.7040    -2.2630    -1.8070 o          1 33R      -0.213000
     13 C07          3.9690    -1.3940     0.3310 ca         1 33R       0.028700
     14 C08          3.2670    -0.8260    -0.8800 c3         1 33R      -0.104400
     15 C09          3.0670     0.6580    -0.7030 ce         1 33R       0.290300
     16 N10          1.9570     1.2530    -0.5120 n2         1 33R      -0.405400
     17 C12         -0.3340     1.2950    -0.2660 cc         1 33R       0.727300
     18 N13         -1.5150     0.7760    -0.1940 nd         1 33R      -0.769000
     19 C14         -2.4630     1.7540    -0.0240 cd         1 33R       0.423800
     20 C16         -4.8930     2.3070     0.1920 ca         1 33R      -0.117000
     21 C18         -6.5490     0.5690     0.2670 ca         1 33R       0.015400
     22 C23         -1.9810     3.0240     0.0320 cc         1 33R      -0.263400
     23 S24         -0.2630     3.0230    -0.1350 ss         1 33R      -0.090300
     24 C25          4.3210     1.5330    -0.7610 c          1 33R       0.850300
     25 O26          5.3730     0.9080    -0.9970 o          1 33R      -0.789800
     26 O27          4.1820     2.7490    -0.5740 o          1 33R      -0.789800
     27 C29          3.8150    -1.9000     2.7060 ca         1 33R      -0.103000
     28 H171        -6.9950     2.6590     0.3680 ha         1 33R       0.141000
     29 H221        -3.4440    -0.7400    -0.0190 ha         1 33R       0.175000
     30 H281         2.2090    -1.1500     1.5230 ha         1 33R       0.137000
     31 H011         5.6050    -2.6260     3.6540 ha         1 33R       0.128000
     32 H021         6.9390    -2.5070     1.5890 ha         1 33R       0.150000
     33 H082         3.8240    -0.9890    -1.7960 hc         1 33R       0.065700
     34 H081         2.3290    -1.3690    -1.0100 hc         1 33R       0.065700
     35 H111         0.7230    -0.4230    -0.5510 hn         1 33R       0.430800
     36 H161        -4.6680     3.3650     0.2050 ha         1 33R       0.138000
     37 H231        -2.5180     3.9500     0.1630 h4         1 33R       0.164000
     38 H291         3.2140    -1.9420     3.6050 ha         1 33R       0.127000
     39 CL19        -8.2000     0.0980     0.3770 cl         1 33R      -0.102400
     40 N11          0.8030     0.5800    -0.4340 nu         1 33R      -0.574000
@<TRIPOS>BOND
     1     1     4 ar  
     2     1    19 1   
     3     1    20 ar  
     4     2    20 ar  
     5     2    21 ar  
     6     2    28 1   
     7     3     4 ar  
     8     3     6 1   
     9     3    21 ar  
    10     4    29 1   
    11     5    13 ar  
    12     5    27 ar  
    13     5    30 1   
    14     7     8 ar  
    15     7    27 ar  
    16     7    31 1   
    17     8     9 ar  
    18     8    32 1   
    19     9    10 1   
    20     9    13 ar  
    21    10    11 1   
    22    10    12 1   
    23    13    14 1   
    24    14    15 1   
    25    14    33 1   
    26    14    34 1   
    27    15    16 2   
    28    15    24 1   
    29    16    40 1   
    30    17    18 2   
    31    17    23 1   
    32    17    40 1   
    33    18    19 1   
    34    19    22 2   
    35    20    36 1   
    36    21    39 1   
    37    22    23 1   
    38    22    37 1   
    39    24    25 1   
    40    24    26 1   
    41    27    38 1   
    42    35    40 1   
@<TRIPOS>SUBSTRUCTURE
     1 33R         1 TEMP              0 ****  ****    0 ROOT
