@<TRIPOS>MOLECULE
33R
   40    42     1     0     0
SMALL
No Charge or Current Charge


@<TRIPOS>ATOM
      1 C15         -3.5930     1.1130     0.0760 ca         1 33R      -0.079500
      2 C17         -6.0340     1.1890     0.2950 ca         1 33R      -0.106000
      3 C20         -4.8760    -0.9390     0.4890 ca         1 33R       0.113000
      4 C22         -3.6490    -0.2860     0.2800 ca         1 33R      -0.070000
      5 C28          3.4910    -0.5230     1.6220 ca         1 33R      -0.125000
      6 Cl21        -4.8840    -2.6860     0.7380 cl         1 33R      -0.190000
      7 C01          4.2920    -2.5650     2.6660 ca         1 33R      -0.131000
      8 C02          4.6740    -3.0550     1.4090 ca         1 33R      -0.070000
      9 C03          4.4630    -2.2850     0.2410 ca         1 33R      -0.116200
     10 N04          4.8690    -2.8700    -1.0730 no         1 33R       0.721200
     11 O05          5.9340    -3.5010    -1.1160 o          1 33R      -0.403000
     12 O06          4.0450    -2.8540    -1.9980 o          1 33R      -0.403000
     13 C07          3.8760    -0.9910     0.3430 ca         1 33R       0.028700
     14 C08          3.6690    -0.1000    -0.8920 c3         1 33R      -0.104400
     15 C09          3.5050     1.4020    -0.6170 ce         1 33R       0.290300
     16 N10          2.3340     2.0020    -0.5970 n2         1 33R      -0.405400
     17 C12         -0.0980     1.8760    -0.3620 cc         1 33R       0.727300
     18 N13         -1.1110     1.0630    -0.1520 nd         1 33R      -0.769000
     19 C14         -2.2940     1.7940    -0.1440 cd         1 33R       0.358500
     20 C16         -4.8060     1.8410     0.0860 ca         1 33R      -0.099000
     21 C18         -6.0740    -0.1990     0.4970 ca         1 33R       0.107000
     22 C23         -2.1370     3.1490    -0.3510 cc         1 33R      -0.325000
     23 S24         -0.4610     3.5710    -0.5690 ss         1 33R       0.054600
     24 C25          4.7880     2.2510    -0.4870 c          1 33R       0.639700
     25 O26          5.8820     1.6960    -0.5410 o          1 33R      -0.684500
     26 O27          4.6990     3.4660    -0.3250 o          1 33R      -0.684500
     27 C29          3.6960    -1.3020     2.7710 ca         1 33R      -0.085000
     28 H171        -6.9580     1.7630     0.3010 ha         1 33R       0.123000
     29 H221        -2.7390    -0.8800     0.2790 ha         1 33R       0.157000
     30 H281         3.0290     0.4530     1.7430 ha         1 33R       0.119000
     31 H011         4.4540    -3.1670     3.5570 ha         1 33R       0.110000
     32 H021         5.1260    -4.0430     1.3410 ha         1 33R       0.132000
     33 H082         4.5250    -0.2230    -1.5640 hc         1 33R       0.065700
     34 H081         2.8190    -0.4730    -1.4750 hc         1 33R       0.065700
     35 H111         1.0930     0.3060    -0.2450 hn         1 33R       0.486000
     36 H161        -4.8110     2.9170    -0.0660 ha         1 33R       0.120000
     37 H231        -2.8830     3.9290    -0.3910 h4         1 33R       0.146000
     38 H291         3.3960    -0.9230     3.7460 ha         1 33R       0.109000
     39 Cl19        -7.6330    -0.9840     0.7550 cl         1 33R      -0.194000
     40 N11          1.1520     1.3140    -0.3990 nu         1 33R      -0.629200
@<TRIPOS>BOND
     1     1     4 ar  
     2     1    19 1   
     3     1    20 ar  
     4     2    20 ar  
     5     2    21 ar  
     6     2    28 1   
     7     3     4 ar  
     8     3     6 1   
     9     3    21 ar  
    10     4    29 1   
    11     5    13 ar  
    12     5    27 ar  
    13     5    30 1   
    14     7     8 ar  
    15     7    27 ar  
    16     7    31 1   
    17     8     9 ar  
    18     8    32 1   
    19     9    10 1   
    20     9    13 ar  
    21    10    11 1   
    22    10    12 1   
    23    13    14 1   
    24    14    15 1   
    25    14    33 1   
    26    14    34 1   
    27    15    16 2   
    28    15    24 1   
    29    16    40 1   
    30    17    18 2   
    31    17    23 1   
    32    17    40 1   
    33    18    19 1   
    34    19    22 2   
    35    20    36 1   
    36    21    39 1   
    37    22    23 1   
    38    22    37 1   
    39    24    25 1   
    40    24    26 1   
    41    27    38 1   
    42    35    40 1   
@<TRIPOS>SUBSTRUCTURE
     1 33R         1 TEMP              0 ****  ****    0 ROOT
