@<TRIPOS>MOLECULE
33S
   22    22     1     0     0
SMALL
bcc


@<TRIPOS>ATOM
      1 CZ           6.5740    47.1330    30.3820 ca         1 33S      -0.127000
      2 CE2          5.7420    46.0640    30.6860 ca         1 33S      -0.152000
      3 CD2          6.2740    44.8240    31.0110 ca         1 33S      -0.117000
      4 N            7.0200    43.2140    33.5610 n8         1 33S      -0.901800
      5 CA           8.2980    42.9390    32.9020 c3         1 33S       0.024500
      6 CB           8.2150    43.2700    31.4040 c3         1 33S      -0.003100
      7 CG           7.6530    44.6210    31.0570 ca         1 33S      -0.034300
      8 CD1          8.4900    45.6950    30.7480 ca         1 33S      -0.064000
      9 CE1          7.9440    46.9230    30.4100 ca         1 33S       0.062900
     10 I1           9.2390    48.5180    29.9270 i          1 33S      -0.232900
     11 C            9.4930    43.5770    33.6520 c          1 33S       0.900600
     12 OXT          9.7230    43.0900    34.7790 o          1 33S      -0.835300
     13 O           10.1020    44.5220    33.1130 o          1 33S      -0.835300
     14 HZ           6.1540    48.0960    30.1260 ha         1 33S       0.124000
     15 HE2          4.6690    46.2030    30.6630 ha         1 33S       0.114000
     16 HD2          5.6100    43.9990    31.2320 ha         1 33S       0.137000
     17 H7           8.4320    41.8530    32.9630 h1         1 33S       0.038700
     18 HB2          7.5800    42.5130    30.9360 hc         1 33S       0.032200
     19 HB3          9.2060    43.1550    30.9630 hc         1 33S       0.032200
     20 HD1          9.5600    45.5520    30.7790 ha         1 33S       0.173000
     21 H            7.0720    42.8570    34.5070 hn         1 33S       0.332300
     22 H2           6.8970    44.2160    33.6580 hn         1 33S       0.332300
@<TRIPOS>BOND
     1     1     2 ar  
     2     1     9 ar  
     3     1    14 1   
     4     2     3 ar  
     5     2    15 1   
     6     3     7 ar  
     7     3    16 1   
     8     4     5 1   
     9     4    21 1   
    10     4    22 1   
    11     5     6 1   
    12     5    11 1   
    13     5    17 1   
    14     6     7 1   
    15     6    18 1   
    16     6    19 1   
    17     7     8 ar  
    18     8     9 ar  
    19     8    20 1   
    20     9    10 1   
    21    11    12 1   
    22    11    13 1   
@<TRIPOS>SUBSTRUCTURE
     1 33S         1 TEMP              0 ****  ****    0 ROOT
