@<TRIPOS>MOLECULE
33T
   49    51     1     0     0
SMALL
No Charge or Current Charge


@<TRIPOS>ATOM
      1 C1          -0.0770    -1.1220    -1.5390 c3         1 33T      -0.113100
      2 C2          -0.3160    -0.2320    -0.2840 c6         1 33T       0.244500
      3 C3           0.8840     0.7570    -0.0770 c6         1 33T       0.177800
      4 N1           2.1230     0.0820     0.4190 nh         1 33T      -0.767400
      5 C4           1.8570    -0.7490     1.6330 c6         1 33T       0.171800
      6 C5           0.6400    -1.7120     1.4590 c6         1 33T       0.233800
      7 N2          -0.5800    -1.0090     0.9700 n3         1 33T      -0.799500
      8 S1          -2.0160    -1.9160     1.0830 sy         1 33T       1.194600
      9 O1          -1.8050    -3.1500     0.3170 o          1 33T      -0.535000
     10 O2          -2.3560    -1.9470     2.5090 o          1 33T      -0.535000
     11 C6          -3.2380    -0.8870     0.2430 ca         1 33T      -0.250500
     12 C7          -3.8320    -1.3610    -0.9470 ca         1 33T      -0.021000
     13 C8          -4.7850    -0.5850    -1.6260 ca         1 33T      -0.080000
     14 C9          -5.1700     0.6820    -1.1380 ca         1 33T      -0.097600
     15 C10         -4.5690     1.1510     0.0540 ca         1 33T      -0.112000
     16 C11         -3.6150     0.3790     0.7410 ca         1 33T       0.197000
     17 Cl1         -2.9100     1.0850     2.1980 cl         1 33T      -0.169000
     18 C12         -6.2000     1.4950    -1.8970 c          1 33T       0.611700
     19 O3          -6.7210     1.1000    -2.9280 o          1 33T      -0.586100
     20 N3          -6.5540     2.7050    -1.4090 nt         1 33T      -0.599000
     21 C13          3.3520     0.7640     0.3280 ca         1 33T       0.265000
     22 C14          3.5870     1.8500     1.1930 ca         1 33T      -0.121000
     23 C15          4.7960     2.5620     1.1420 ca         1 33T      -0.118000
     24 C16          5.7790     2.1870     0.2180 ca         1 33T       0.166000
     25 C17          5.5610     1.1080    -0.6510 ca         1 33T      -0.105000
     26 C18          4.3450     0.3790    -0.6080 ca         1 33T      -0.151300
     27 C19          4.1090    -0.7980    -1.5690 c3         1 33T       0.370300
     28 F1           3.0930    -0.5490    -2.4260 f          1 33T      -0.110333
     29 F2           5.1910    -1.0720    -2.3360 f          1 33T      -0.110333
     30 F3           3.8130    -1.9450    -0.9150 f          1 33T      -0.110333
     31 F4           6.9440     2.8700     0.1630 f          1 33T      -0.169000
     32 H1          -0.9550    -1.7280    -1.7850 hc         1 33T       0.056033
     33 H1A          0.1340    -0.5020    -2.4180 hc         1 33T       0.056033
     34 H1B          0.7740    -1.7980    -1.4060 hc         1 33T       0.056033
     35 H2          -1.1810     0.4040    -0.5190 h1         1 33T       0.055700
     36 H3           1.0900     1.2720    -1.0270 h1         1 33T       0.044200
     37 H3A          0.5750     1.5270     0.6450 h1         1 33T       0.044200
     38 H4           2.7450    -1.3490     1.8810 h1         1 33T       0.047200
     39 H4A          1.6570    -0.0910     2.4910 h1         1 33T       0.047200
     40 H5           0.9260    -2.5190     0.7690 h1         1 33T       0.069700
     41 H5A          0.4490    -2.1880     2.4320 h1         1 33T       0.069700
     42 H7          -3.5620    -2.3340    -1.3550 ha         1 33T       0.154000
     43 H8          -5.2260    -0.9770    -2.5410 ha         1 33T       0.147000
     44 H10         -4.8280     2.1220     0.4650 ha         1 33T       0.129000
     45 HN3         -6.1410     3.0540    -0.5590 hn         1 33T       0.317500
     46 HN3A        -7.2400     3.2520    -1.9070 hn         1 33T       0.317500
     47 H14          2.8230     2.1420     1.9080 ha         1 33T       0.125000
     48 H15          4.9710     3.4000     1.8120 ha         1 33T       0.139000
     49 H17          6.3470     0.8490    -1.3560 ha         1 33T       0.154000
@<TRIPOS>BOND
     1     1     2 1   
     2     1    32 1   
     3     1    33 1   
     4     1    34 1   
     5     2     3 1   
     6     2     7 1   
     7     2    35 1   
     8     3     4 1   
     9     3    36 1   
    10     3    37 1   
    11     4     5 1   
    12     4    21 1   
    13     5     6 1   
    14     5    38 1   
    15     5    39 1   
    16     6     7 1   
    17     6    40 1   
    18     6    41 1   
    19     7     8 1   
    20     8     9 2   
    21     8    10 2   
    22     8    11 1   
    23    11    12 ar  
    24    11    16 ar  
    25    12    13 ar  
    26    12    42 1   
    27    13    14 ar  
    28    13    43 1   
    29    14    15 ar  
    30    14    18 1   
    31    15    16 ar  
    32    15    44 1   
    33    16    17 1   
    34    18    19 2   
    35    18    20 1   
    36    20    45 1   
    37    20    46 1   
    38    21    22 ar  
    39    21    26 ar  
    40    22    23 ar  
    41    22    47 1   
    42    23    24 ar  
    43    23    48 1   
    44    24    25 ar  
    45    24    31 1   
    46    25    26 ar  
    47    25    49 1   
    48    26    27 1   
    49    27    28 1   
    50    27    29 1   
    51    27    30 1   
@<TRIPOS>SUBSTRUCTURE
     1 33T         1 TEMP              0 ****  ****    0 ROOT
