@<TRIPOS>MOLECULE
33T
   49    51     1     0     0
SMALL
bcc


@<TRIPOS>ATOM
      1 C1           0.6890    -2.3070    -1.8290 c3         1 33T      -0.113100
      2 C2          -0.0710    -1.2140    -1.0910 c6         1 33T       0.244500
      3 C3           0.7540     0.0520    -0.8880 c6         1 33T       0.177800
      4 N1           1.8370    -0.1960     0.0480 nh         1 33T      -0.629000
      5 C4           1.3280    -0.5850     1.3560 c6         1 33T       0.171800
      6 C5           0.4860    -1.8410     1.2450 c6         1 33T       0.233800
      7 N2          -0.5430    -1.6370     0.2330 n3         1 33T      -0.799500
      8 S1          -2.0230    -2.3100     0.3530 sy         1 33T       1.336200
      9 O1          -2.2670    -3.2580    -0.7240 o          1 33T      -0.605800
     10 O2          -2.2160    -2.7590     1.7200 o          1 33T      -0.605800
     11 C6          -3.1010    -0.9240     0.0300 ca         1 33T      -0.250500
     12 C7          -3.9190    -0.9710    -1.0920 ca         1 33T      -0.039000
     13 C8          -4.7770     0.0750    -1.3790 ca         1 33T      -0.098000
     14 C9          -4.8120     1.1940    -0.5570 ca         1 33T      -0.097600
     15 C10         -4.0030     1.2400     0.5730 ca         1 33T      -0.130000
     16 C11         -3.1560     0.1860     0.8680 ca         1 33T       0.105400
     17 CL1         -2.1930     0.3040     2.2900 cl         1 33T      -0.077400
     18 C12         -5.7620     2.3040    -0.9010 c          1 33T       0.678700
     19 O3          -6.7740     2.0720    -1.5430 o          1 33T      -0.586100
     20 N3          -5.4260     3.5230    -0.4620 nt         1 33T      -0.666000
     21 C13          2.7980     0.8450     0.1170 ca         1 33T       0.126600
     22 C14          2.4410     2.1490     0.4470 ca         1 33T      -0.139000
     23 C15          3.3860     3.1590     0.5290 ca         1 33T      -0.136000
     24 C16          4.7050     2.8410     0.2820 ca         1 33T       0.130900
     25 C17          5.1050     1.5620    -0.0470 ca         1 33T      -0.123000
     26 C18          4.1430     0.5620    -0.1310 ca         1 33T      -0.151300
     27 C19          4.5530    -0.8280    -0.5270 c3         1 33T       0.734200
     28 F1           4.0050    -1.1930    -1.6920 f          1 33T      -0.231633
     29 F2           5.8800    -0.9290    -0.6850 f          1 33T      -0.231633
     30 F3           4.2130    -1.7470     0.3820 f          1 33T      -0.231633
     31 F4           5.6340     3.8030     0.3590 f          1 33T      -0.133900
     32 H1           0.0680    -3.1910    -1.9620 hc         1 33T       0.056033
     33 H1A          0.9840    -1.9480    -2.8150 hc         1 33T       0.056033
     34 H1B          1.5940    -2.5960    -1.2980 hc         1 33T       0.056033
     35 H2          -0.9390    -0.9190    -1.6870 h1         1 33T       0.055700
     36 H3           1.1720     0.3550    -1.8490 h1         1 33T       0.044200
     37 H3A          0.0820     0.8570    -0.5510 h1         1 33T       0.044200
     38 H4           2.1630    -0.7870     2.0270 h1         1 33T       0.047200
     39 H4A          0.7240     0.2130     1.8110 h1         1 33T       0.047200
     40 H5           1.1180    -2.6970     0.9920 h1         1 33T       0.069700
     41 H5A          0.0260    -2.0420     2.2090 h1         1 33T       0.069700
     42 H7          -3.8850    -1.8280    -1.7500 ha         1 33T       0.172000
     43 H8          -5.4100     0.0210    -2.2540 ha         1 33T       0.165000
     44 H10         -4.0380     2.0840     1.2500 ha         1 33T       0.147000
     45 HN3         -4.5240     3.7290    -0.0680 hn         1 33T       0.317500
     46 HN3A        -6.0130     4.3100    -0.6860 hn         1 33T       0.317500
     47 H14          1.4040     2.3880     0.6470 ha         1 33T       0.143000
     48 H15          3.0990     4.1710     0.7830 ha         1 33T       0.157000
     49 H17          6.1510     1.3680    -0.2350 ha         1 33T       0.172000
@<TRIPOS>BOND
     1     1     2 1   
     2     1    32 1   
     3     1    33 1   
     4     1    34 1   
     5     2     3 1   
     6     2     7 1   
     7     2    35 1   
     8     3     4 1   
     9     3    36 1   
    10     3    37 1   
    11     4     5 1   
    12     4    21 1   
    13     5     6 1   
    14     5    38 1   
    15     5    39 1   
    16     6     7 1   
    17     6    40 1   
    18     6    41 1   
    19     7     8 1   
    20     8     9 2   
    21     8    10 2   
    22     8    11 1   
    23    11    12 ar  
    24    11    16 ar  
    25    12    13 ar  
    26    12    42 1   
    27    13    14 ar  
    28    13    43 1   
    29    14    15 ar  
    30    14    18 1   
    31    15    16 ar  
    32    15    44 1   
    33    16    17 1   
    34    18    19 2   
    35    18    20 1   
    36    20    45 1   
    37    20    46 1   
    38    21    22 ar  
    39    21    26 ar  
    40    22    23 ar  
    41    22    47 1   
    42    23    24 ar  
    43    23    48 1   
    44    24    25 ar  
    45    24    31 1   
    46    25    26 ar  
    47    25    49 1   
    48    26    27 1   
    49    27    28 1   
    50    27    29 1   
    51    27    30 1   
@<TRIPOS>SUBSTRUCTURE
     1 33T         1 TEMP              0 ****  ****    0 ROOT
