@<TRIPOS>MOLECULE
33U
   66    69     1     0     0
SMALL
abcg2


@<TRIPOS>ATOM
      1 C37          5.7430     1.2950     1.2190 ca         1 33U      -0.104750
      2 C26          7.0770     1.6710     1.2860 ca         1 33U      -0.106000
      3 C25          7.9680     1.2490     0.3090 ca         1 33U      -0.105500
      4 C34          7.5060     0.4510    -0.7280 ca         1 33U      -0.106000
      5 C23          6.1700     0.0760    -0.7890 ca         1 33U      -0.104750
      6 C7           5.2600     0.4900     0.1860 ca         1 33U      -0.070800
      7 C8           3.7880     0.1360     0.1920 c3         1 33U      -0.012100
      8 C9           3.0260     0.6620    -1.0740 c3         1 33U       0.120500
      9 C10          1.5340     0.5430    -0.7790 c          1 33U       0.615100
     10 O32          0.8730    -0.3810    -1.2310 o          1 33U      -0.584100
     11 N2           3.2920     0.0230    -2.3350 n8         1 33U      -0.998200
     12 C1           3.4780    -1.3180     0.4780 ca         1 33U      -0.070800
     13 C6           4.0590    -2.3830    -0.2090 ca         1 33U      -0.104750
     14 C5           3.6990    -3.6950     0.0740 ca         1 33U      -0.106000
     15 C4           2.7540    -3.9710     1.0510 ca         1 33U      -0.105500
     16 C3           2.1710    -2.9210     1.7460 ca         1 33U      -0.106000
     17 C2           2.5310    -1.6130     1.4590 ca         1 33U      -0.104750
     18 N1           0.9880     1.4440     0.0590 n          1 33U      -0.408800
     19 C14         -0.3880     1.2710     0.4800 c5         1 33U       0.031700
     20 C15         -1.3440     1.4000    -0.7010 c          1 33U       0.598100
     21 O22         -1.1560     2.2020    -1.6020 o          1 33U      -0.595100
     22 C13         -0.5950     2.4130     1.4840 c5         1 33U      -0.081400
     23 C12          0.3600     3.4970     0.9990 c5         1 33U      -0.094400
     24 C11          1.5670     2.7080     0.5070 c5         1 33U       0.112000
     25 N23         -2.4300     0.6190    -0.6190 ns         1 33U      -0.499900
     26 C16         -3.4850     0.6120    -1.6120 c3         1 33U       0.147300
     27 C17         -4.7700     0.1310    -0.9980 ca         1 33U      -0.098300
     28 C22         -5.2950    -1.1150    -1.3220 ca         1 33U      -0.106000
     29 C21         -6.4660    -1.5670    -0.7330 ca         1 33U      -0.081500
     30 C24         -7.1450    -0.7760     0.1900 ca         1 33U      -0.138900
     31 C27         -8.3960    -1.2890     0.8160 ce         1 33U       0.659800
     32 N35         -8.5570    -2.5530     0.9100 n2         1 33U      -0.827100
     33 N34         -9.2450    -0.3310     1.2890 nv         1 33U      -1.077200
     34 C19         -6.6190     0.4730     0.5170 ca         1 33U      -0.081500
     35 C18         -5.4440     0.9170    -0.0680 ca         1 33U      -0.106000
     36 H37          5.0620     1.6360     1.9910 ha         1 33U       0.106750
     37 H26          7.4180     2.2930     2.1030 ha         1 33U       0.112750
     38 H25          9.0090     1.5390     0.3540 ha         1 33U       0.114000
     39 H34          8.1870     0.1140    -1.4980 ha         1 33U       0.112750
     40 H23          5.8600    -0.5460    -1.6160 ha         1 33U       0.106750
     41 H8           3.3720     0.6950     1.0340 hc         1 33U       0.059700
     42 H9           3.3010     1.7150    -1.1810 h1         1 33U       0.072700
     43 HN2          4.2320     0.2170    -2.6490 hn         1 33U       0.416000
     44 HN2A         3.1810    -0.9810    -2.2750 hn         1 33U       0.416000
     45 H6           4.8120    -2.2150    -0.9660 ha         1 33U       0.106750
     46 H5           4.1650    -4.5030    -0.4750 ha         1 33U       0.112750
     47 H4           2.4780    -4.9940     1.2710 ha         1 33U       0.114000
     48 H3           1.4360    -3.1170     2.5170 ha         1 33U       0.112750
     49 H2           2.0650    -0.8050     2.0110 ha         1 33U       0.106750
     50 H14         -0.5190     0.2970     0.9590 h1         1 33U       0.070700
     51 H13         -1.6330     2.7390     1.5400 hc         1 33U       0.056200
     52 H13A        -0.3050     2.0680     2.4790 hc         1 33U       0.056200
     53 H12         -0.0820     4.0590     0.1770 hc         1 33U       0.064200
     54 H12A         0.6280     4.2050     1.7830 hc         1 33U       0.064200
     55 H11          2.2840     2.5470     1.3180 h1         1 33U       0.045700
     56 H11A         2.0870     3.2170    -0.3030 h1         1 33U       0.045700
     57 HN23        -2.4570    -0.0980     0.0890 hn         1 33U       0.317500
     58 H16         -3.6060     1.6260    -1.9960 h1         1 33U       0.062200
     59 H16A        -3.2130    -0.0210    -2.4620 h1         1 33U       0.062200
     60 H22         -4.7840    -1.7430    -2.0420 ha         1 33U       0.119500
     61 H21         -6.8610    -2.5400    -0.9910 ha         1 33U       0.128000
     62 HN35        -9.4560    -2.7790     1.3270 hn         1 33U       0.371400
     63 HN34        -9.2490     0.5710     0.8410 hn         1 33U       0.462000
     64 HN3A       -10.1560    -0.6310     1.6000 hn         1 33U       0.462000
     65 H19         -7.1090     1.1040     1.2480 ha         1 33U       0.128000
     66 H18         -5.0470     1.8880     0.2060 ha         1 33U       0.119500
@<TRIPOS>BOND
     1     1     2 ar  
     2     1     6 ar  
     3     1    36 1   
     4     2     3 ar  
     5     2    37 1   
     6     3     4 ar  
     7     3    38 1   
     8     4     5 ar  
     9     4    39 1   
    10     5     6 ar  
    11     5    40 1   
    12     6     7 1   
    13     7     8 1   
    14     7    12 1   
    15     7    41 1   
    16     8     9 1   
    17     8    11 1   
    18     8    42 1   
    19     9    10 2   
    20     9    18 1   
    21    11    43 1   
    22    11    44 1   
    23    12    13 ar  
    24    12    17 ar  
    25    13    14 ar  
    26    13    45 1   
    27    14    15 ar  
    28    14    46 1   
    29    15    16 ar  
    30    15    47 1   
    31    16    17 ar  
    32    16    48 1   
    33    17    49 1   
    34    18    19 1   
    35    18    24 1   
    36    19    20 1   
    37    19    22 1   
    38    19    50 1   
    39    20    21 2   
    40    20    25 1   
    41    22    23 1   
    42    22    51 1   
    43    22    52 1   
    44    23    24 1   
    45    23    53 1   
    46    23    54 1   
    47    24    55 1   
    48    24    56 1   
    49    25    26 1   
    50    25    57 1   
    51    26    27 1   
    52    26    58 1   
    53    26    59 1   
    54    27    28 ar  
    55    27    35 ar  
    56    28    29 ar  
    57    28    60 1   
    58    29    30 ar  
    59    29    61 1   
    60    30    31 1   
    61    30    34 ar  
    62    31    32 2   
    63    31    33 1   
    64    32    62 1   
    65    33    63 1   
    66    33    64 1   
    67    34    35 ar  
    68    34    65 1   
    69    35    66 1   
@<TRIPOS>SUBSTRUCTURE
     1 33U         1 TEMP              0 ****  ****    0 ROOT
