@<TRIPOS>MOLECULE
33U
   66    69     1     0     0
SMALL
No Charge or Current Charge


@<TRIPOS>ATOM
      1 C37          6.1330     1.7570     0.2750 ca         1 33U      -0.104750
      2 C26          7.5070     1.9760     0.0790 ca         1 33U      -0.106000
      3 C25          8.3270     0.9350    -0.3860 ca         1 33U      -0.105500
      4 C34          7.7690    -0.3250    -0.6540 ca         1 33U      -0.106000
      5 C23          6.3950    -0.5460    -0.4580 ca         1 33U      -0.104750
      6 C7           5.5620     0.4940     0.0110 ca         1 33U      -0.070800
      7 C8           4.0540     0.2920     0.2310 c3         1 33U      -0.012100
      8 C9           3.2040     0.8430    -0.9650 c3         1 33U       0.120500
      9 C10          1.6560     0.5480    -0.7970 c          1 33U       0.615100
     10 O32          1.0910    -0.2760    -1.5120 o          1 33U      -0.584100
     11 N2           3.8110     0.4860    -2.3000 n8         1 33U      -0.998200
     12 C1           3.7120    -1.1390     0.6890 ca         1 33U      -0.070800
     13 C6           3.3810    -2.1740    -0.2140 ca         1 33U      -0.104750
     14 C5           3.0750    -3.4630     0.2550 ca         1 33U      -0.106000
     15 C4           3.1000    -3.7370     1.6310 ca         1 33U      -0.105500
     16 C3           3.4350    -2.7200     2.5380 ca         1 33U      -0.106000
     17 C2           3.7400    -1.4310     2.0690 ca         1 33U      -0.104750
     18 N1           0.9090     1.2380     0.1890 n          1 33U      -0.408800
     19 C14         -0.5410     0.9700     0.4080 c5         1 33U       0.031700
     20 C15         -1.4760     1.5240    -0.7190 c          1 33U       0.598100
     21 O22         -1.1890     2.3110    -1.6130 o          1 33U      -0.595100
     22 C13         -0.7900     1.7500     1.7350 c5         1 33U      -0.081400
     23 C12          0.1240     2.9880     1.5600 c5         1 33U      -0.094400
     24 C11          1.4280     2.3470     1.0230 c5         1 33U       0.112000
     25 N23         -2.7280     0.9650    -0.5880 ns         1 33U      -0.499900
     26 C16         -3.8510     1.2550    -1.4750 c3         1 33U       0.147300
     27 C17         -5.1120     0.5480    -1.0050 ca         1 33U      -0.098300
     28 C22         -5.4310    -0.7340    -1.4850 ca         1 33U      -0.106000
     29 C21         -6.5940    -1.3900    -1.0450 ca         1 33U      -0.081500
     30 C24         -7.4710    -0.7720    -0.1230 ca         1 33U      -0.138900
     31 C27         -8.6930    -1.4970     0.3630 ce         1 33U       0.659800
     32 N35         -8.8590    -2.7490     0.2360 n2         1 33U      -0.827100
     33 N34         -9.7130    -0.7660     0.8640 nv         1 33U      -1.077200
     34 C19         -7.1270     0.5080     0.3730 ca         1 33U      -0.081500
     35 C18         -5.9630     1.1620    -0.0680 ca         1 33U      -0.106000
     36 H37          5.5110     2.5740     0.6330 ha         1 33U       0.106750
     37 H26          7.9370     2.9540     0.2860 ha         1 33U       0.112750
     38 H25          9.3900     1.1050    -0.5380 ha         1 33U       0.114000
     39 H34          8.4020    -1.1330    -1.0140 ha         1 33U       0.112750
     40 H23          5.9870    -1.5290    -0.6750 ha         1 33U       0.106750
     41 H8           3.7960     0.9360     1.0770 hc         1 33U       0.059700
     42 H9           3.2940     1.9360    -0.9080 h1         1 33U       0.072700
     43 HN2          4.8330     0.4910    -2.1980 hn         1 33U       0.416000
     44 HN2A         3.5930    -0.4940    -2.5120 hn         1 33U       0.416000
     45 H6           3.3620    -1.9950    -1.2840 ha         1 33U       0.106750
     46 H5           2.8210    -4.2510    -0.4500 ha         1 33U       0.112750
     47 H4           2.8640    -4.7360     1.9930 ha         1 33U       0.114000
     48 H3           3.4590    -2.9300     3.6050 ha         1 33U       0.112750
     49 H2           4.0020    -0.6560     2.7860 ha         1 33U       0.106750
     50 H14         -0.7380    -0.1030     0.5300 h1         1 33U       0.070700
     51 H13         -1.8410     2.0160     1.8930 hc         1 33U       0.056200
     52 H13A        -0.4760     1.1540     2.6010 hc         1 33U       0.056200
     53 H12         -0.2960     3.6960     0.8360 hc         1 33U       0.064200
     54 H12A         0.2830     3.5350     2.4950 hc         1 33U       0.064200
     55 H11          2.0340     1.9590     1.8520 h1         1 33U       0.045700
     56 H11A         2.0260     3.0690     0.4520 h1         1 33U       0.045700
     57 HN23        -2.8750     0.3180     0.1770 hn         1 33U       0.317500
     58 H16         -4.0190     2.3400    -1.4970 h1         1 33U       0.062200
     59 H16A        -3.5960     0.9300    -2.4920 h1         1 33U       0.062200
     60 H22         -4.7750    -1.2270    -2.2000 ha         1 33U       0.119500
     61 H21         -6.8150    -2.3830    -1.4310 ha         1 33U       0.128000
     62 HN35        -9.6580    -3.0230     0.8180 hn         1 33U       0.371400
     63 HN34        -9.6630     0.2250     0.6600 hn         1 33U       0.462000
     64 HN3A       -10.6370    -1.1730     0.7840 hn         1 33U       0.462000
     65 H19         -7.7500     1.0030     1.1150 ha         1 33U       0.128000
     66 H18         -5.7190     2.1460     0.3260 ha         1 33U       0.119500
@<TRIPOS>BOND
     1     1     2 ar  
     2     1     6 ar  
     3     1    36 1   
     4     2     3 ar  
     5     2    37 1   
     6     3     4 ar  
     7     3    38 1   
     8     4     5 ar  
     9     4    39 1   
    10     5     6 ar  
    11     5    40 1   
    12     6     7 1   
    13     7     8 1   
    14     7    12 1   
    15     7    41 1   
    16     8     9 1   
    17     8    11 1   
    18     8    42 1   
    19     9    10 2   
    20     9    18 1   
    21    11    43 1   
    22    11    44 1   
    23    12    13 ar  
    24    12    17 ar  
    25    13    14 ar  
    26    13    45 1   
    27    14    15 ar  
    28    14    46 1   
    29    15    16 ar  
    30    15    47 1   
    31    16    17 ar  
    32    16    48 1   
    33    17    49 1   
    34    18    19 1   
    35    18    24 1   
    36    19    20 1   
    37    19    22 1   
    38    19    50 1   
    39    20    21 2   
    40    20    25 1   
    41    22    23 1   
    42    22    51 1   
    43    22    52 1   
    44    23    24 1   
    45    23    53 1   
    46    23    54 1   
    47    24    55 1   
    48    24    56 1   
    49    25    26 1   
    50    25    57 1   
    51    26    27 1   
    52    26    58 1   
    53    26    59 1   
    54    27    28 ar  
    55    27    35 ar  
    56    28    29 ar  
    57    28    60 1   
    58    29    30 ar  
    59    29    61 1   
    60    30    31 1   
    61    30    34 ar  
    62    31    32 2   
    63    31    33 1   
    64    32    62 1   
    65    33    63 1   
    66    33    64 1   
    67    34    35 ar  
    68    34    65 1   
    69    35    66 1   
@<TRIPOS>SUBSTRUCTURE
     1 33U         1 TEMP              0 ****  ****    0 ROOT
