@<TRIPOS>MOLECULE
33V
   43    45     1     0     0
SMALL
abcg2


@<TRIPOS>ATOM
      1 S1          -0.6630    -0.9250    -0.8370 ss         1 33V      -0.493000
      2 C2          -1.7960    -1.0220     0.5790 c3         1 33V       0.067600
      3 C3          -3.2810    -0.7860     0.2660 c3         1 33V       0.032500
      4 N4          -3.6730     0.5680    -0.0370 n7         1 33V      -0.857400
      5 C5          -2.8730     1.3140    -0.9800 c3         1 33V       0.181800
      6 C6          -1.4570     1.7430    -0.5180 c3         1 33V      -0.106700
      7 C7          -1.2130     3.2160    -0.8470 c3         1 33V       0.164600
      8 O8          -2.1850     3.9930    -0.1820 oh         1 33V      -0.649000
      9 C31         -4.0890    -1.3110     1.4830 c          1 33V       0.722000
     10 O32         -4.5240    -0.4630     2.2860 o          1 33V      -0.721500
     11 O33         -4.1940    -2.5490     1.5760 o          1 33V      -0.721500
     12 C61         -0.3720     0.8600    -1.1410 c3         1 33V       0.101300
     13 C62          1.0660     1.2250    -0.7620 c5         1 33V       0.157500
     14 N63          2.0080     0.3770    -1.5100 n7         1 33V      -0.612200
     15 N64          3.1270     0.1820    -0.6190 n3         1 33V      -0.486400
     16 C65          2.4860    -0.0770     0.6630 c5         1 33V       0.134500
     17 C66          1.4280     1.0130     0.7160 c5         1 33V      -0.067400
     18 C67          3.9040    -0.9520    -1.0580 c6         1 33V       0.303800
     19 S68          5.3570    -1.1340     0.0090 ss         1 33V      -0.462000
     20 C69          4.4920    -1.2370     1.6050 c6         1 33V       0.071600
     21 C70          3.5040    -0.0920     1.7850 c6         1 33V      -0.065400
     22 H2          -1.6710    -2.0530     0.9150 h1         1 33V       0.069200
     23 H1          -1.4500    -0.3870     1.3980 h1         1 33V       0.069200
     24 H3          -3.5190    -1.4220    -0.5950 h1         1 33V       0.060700
     25 H41         -3.7770     1.0770     0.8310 hn         1 33V       0.443000
     26 H7          -2.7950     0.7370    -1.9060 h1         1 33V       0.044200
     27 H6          -3.4410     2.2100    -1.2390 h1         1 33V       0.044200
     28 H8          -1.4070     1.6500     0.5730 hc         1 33V       0.070700
     29 H9          -0.2100     3.5180    -0.5290 h1         1 33V       0.006700
     30 H72         -1.2600     3.3520    -1.9370 h1         1 33V       0.006700
     31 H81         -2.0450     4.9130    -0.4240 ho         1 33V       0.428000
     32 H13         -0.4540     0.9630    -2.2300 h1         1 33V       0.065700
     33 H14          1.2290     2.2730    -1.0300 h1         1 33V       0.027700
     34 H15          2.3690     0.9130    -2.2920 hn         1 33V       0.399000
     35 H16          1.9710    -1.0530     0.6350 h1         1 33V       0.071700
     36 H17          1.8330     1.9300     1.1490 hc         1 33V       0.057200
     37 H18          0.5750     0.7120     1.3240 hc         1 33V       0.057200
     38 H20          3.3200    -1.8830    -1.0650 h2         1 33V       0.070200
     39 H19          4.2900    -0.7810    -2.0650 h2         1 33V       0.070200
     40 H21          3.9790    -2.1990     1.6720 h1         1 33V       0.065700
     41 H22          5.2660    -1.2210     2.3730 h1         1 33V       0.065700
     42 H23          4.0330     0.8630     1.8200 hc         1 33V       0.055700
     43 H24          2.9870    -0.2170     2.7410 hc         1 33V       0.055700
@<TRIPOS>BOND
     1     1     2 1   
     2     1    12 1   
     3     2     3 1   
     4     2    22 1   
     5     2    23 1   
     6     3     4 1   
     7     3     9 1   
     8     3    24 1   
     9     4     5 1   
    10     4    25 1   
    11     5     6 1   
    12     5    26 1   
    13     5    27 1   
    14     6     7 1   
    15     6    12 1   
    16     6    28 1   
    17     7     8 1   
    18     7    29 1   
    19     7    30 1   
    20     8    31 1   
    21     9    10 1   
    22     9    11 1   
    23    12    13 1   
    24    12    32 1   
    25    13    14 1   
    26    13    17 1   
    27    13    33 1   
    28    14    15 1   
    29    14    34 1   
    30    15    16 1   
    31    15    18 1   
    32    16    17 1   
    33    16    21 1   
    34    16    35 1   
    35    17    36 1   
    36    17    37 1   
    37    18    19 1   
    38    18    38 1   
    39    18    39 1   
    40    19    20 1   
    41    20    21 1   
    42    20    40 1   
    43    20    41 1   
    44    21    42 1   
    45    21    43 1   
@<TRIPOS>SUBSTRUCTURE
     1 33V         1 TEMP              0 ****  ****    0 ROOT
