@<TRIPOS>MOLECULE
33V
   43    45     1     0     0
SMALL
No Charge or Current Charge


@<TRIPOS>ATOM
      1 S1          -0.4870    -0.8300    -1.1370 ss         1 33V      -0.493000
      2 C2          -1.3070    -1.0350     0.5160 c3         1 33V       0.067600
      3 C3          -2.8540    -0.9980     0.4000 c3         1 33V       0.032500
      4 N4          -3.3950     0.3950     0.1600 n7         1 33V      -0.857400
      5 C5          -2.8630     1.1800    -0.9780 c3         1 33V       0.181800
      6 C6          -1.4800     1.8240    -0.6470 c3         1 33V      -0.106700
      7 C7          -1.4560     3.3170    -1.0820 c3         1 33V       0.164600
      8 O8          -2.4310     4.0720    -0.3560 oh         1 33V      -0.649000
      9 C31         -3.4730    -1.7010     1.6670 c          1 33V       0.722000
     10 O32         -3.3190    -1.1720     2.7610 o          1 33V      -0.721500
     11 O33         -4.1260    -2.7250     1.5060 o          1 33V      -0.721500
     12 C61         -0.2760     1.0290    -1.2670 c3         1 33V       0.101300
     13 C62          1.1580     1.5490    -0.8480 c5         1 33V       0.157500
     14 N63          2.2820     0.8440    -1.5270 n7         1 33V      -0.612200
     15 N64          3.0840     0.1340    -0.5670 n3         1 33V      -0.486400
     16 C65          2.2760     0.0900     0.6790 c5         1 33V       0.134500
     17 C66          1.5650     1.4610     0.6540 c5         1 33V      -0.067400
     18 C67          3.5710    -1.1950    -1.0120 c6         1 33V       0.303800
     19 S68          4.8110    -1.8290     0.2150 ss         1 33V      -0.462000
     20 C69          3.8290    -1.6030     1.7710 c6         1 33V       0.071600
     21 C70          3.1990    -0.1960     1.8850 c6         1 33V      -0.065400
     22 H2          -1.0160    -2.0210     0.9010 h1         1 33V       0.069200
     23 H1          -0.9470    -0.2860     1.2330 h1         1 33V       0.069200
     24 H3          -3.1210    -1.6360    -0.4530 h1         1 33V       0.060700
     25 H41         -3.2880     0.9500     1.0200 hn         1 33V       0.443000
     26 H7          -2.8010     0.5740    -1.8930 h1         1 33V       0.044200
     27 H6          -3.5830     1.9780    -1.2020 h1         1 33V       0.044200
     28 H8          -1.3590     1.8310     0.4410 hc         1 33V       0.070700
     29 H9          -0.4690     3.7510    -0.8910 h1         1 33V       0.006700
     30 H72         -1.6480     3.3850    -2.1610 h1         1 33V       0.006700
     31 H81         -2.3640     5.0010    -0.6670 ho         1 33V       0.428000
     32 H13         -0.3280     1.2190    -2.3470 h1         1 33V       0.065700
     33 H14          1.2060     2.6000    -1.1550 h1         1 33V       0.027700
     34 H15          2.8250     1.5600    -2.0320 hn         1 33V       0.399000
     35 H16          1.5330    -0.7160     0.6350 h1         1 33V       0.071700
     36 H17          2.2560     2.2690     0.9200 hc         1 33V       0.057200
     37 H18          0.7210     1.5130     1.3480 hc         1 33V       0.057200
     38 H20          2.7370    -1.9090    -1.0830 h2         1 33V       0.070200
     39 H19          4.0720    -1.1160    -1.9890 h2         1 33V       0.070200
     40 H21          3.0370    -2.3650     1.7870 h1         1 33V       0.065700
     41 H22          4.4920    -1.7890     2.6280 h1         1 33V       0.065700
     42 H23          3.9880     0.5650     1.9470 hc         1 33V       0.055700
     43 H24          2.6200    -0.1290     2.8160 hc         1 33V       0.055700
@<TRIPOS>BOND
     1     1     2 1   
     2     1    12 1   
     3     2     3 1   
     4     2    22 1   
     5     2    23 1   
     6     3     4 1   
     7     3     9 1   
     8     3    24 1   
     9     4     5 1   
    10     4    25 1   
    11     5     6 1   
    12     5    26 1   
    13     5    27 1   
    14     6     7 1   
    15     6    12 1   
    16     6    28 1   
    17     7     8 1   
    18     7    29 1   
    19     7    30 1   
    20     8    31 1   
    21     9    10 1   
    22     9    11 1   
    23    12    13 1   
    24    12    32 1   
    25    13    14 1   
    26    13    17 1   
    27    13    33 1   
    28    14    15 1   
    29    14    34 1   
    30    15    16 1   
    31    15    18 1   
    32    16    17 1   
    33    16    21 1   
    34    16    35 1   
    35    17    36 1   
    36    17    37 1   
    37    18    19 1   
    38    18    38 1   
    39    18    39 1   
    40    19    20 1   
    41    20    21 1   
    42    20    40 1   
    43    20    41 1   
    44    21    42 1   
    45    21    43 1   
@<TRIPOS>SUBSTRUCTURE
     1 33V         1 TEMP              0 ****  ****    0 ROOT
