@<TRIPOS>MOLECULE
33W
   19    19     1     0     0
SMALL
bcc


@<TRIPOS>ATOM
      1 C4           6.6400    48.4650    30.4420 cc         1 33W      -0.125000
      2 C5           7.0480    47.1560    30.0630 cc         1 33W      -0.204000
      3 N            8.5540    44.5050    32.0350 n8         1 33W      -0.887800
      4 CA           9.6530    44.9250    31.1750 c3         1 33W       0.010500
      5 CB           9.1110    45.6450    29.9400 c3         1 33W       0.010900
      6 C1           8.3770    46.9110    30.2420 cd         1 33W      -0.014400
      7 C3           7.6920    49.1870    30.9080 cd         1 33W      -0.092000
      8 S2           9.1680    48.3030    30.9030 ss         1 33W       0.094200
      9 BR           7.6590    50.9450    31.5250 br         1 33W      -0.097100
     10 C           10.7770    45.7220    31.8870 c          1 33W       0.897600
     11 O           11.4520    46.4950    31.1720 o          1 33W      -0.832800
     12 OXT         10.9410    45.4940    33.1000 o          1 33W      -0.832800
     13 H4           5.6280    48.8350    30.3690 ha         1 33W       0.137000
     14 H5           6.3710    46.4150    29.6600 ha         1 33W       0.139000
     15 HA          10.1330    44.0090    30.8020 h1         1 33W       0.044700
     16 HB3          8.4130    44.9850    29.4210 hc         1 33W       0.045200
     17 HB2          9.9310    45.8400    29.2500 hc         1 33W       0.045200
     18 H            8.9600    44.1510    32.8920 hn         1 33W       0.331300
     19 H2           8.0340    45.3280    32.3230 hn         1 33W       0.331300
@<TRIPOS>BOND
     1     1     2 1   
     2     1     7 2   
     3     1    13 1   
     4     2     6 2   
     5     2    14 1   
     6     3     4 1   
     7     3    18 1   
     8     3    19 1   
     9     4     5 1   
    10     4    10 1   
    11     4    15 1   
    12     5     6 1   
    13     5    16 1   
    14     5    17 1   
    15     6     8 1   
    16     7     8 1   
    17     7     9 1   
    18    10    11 1   
    19    10    12 1   
@<TRIPOS>SUBSTRUCTURE
     1 33W         1 TEMP              0 ****  ****    0 ROOT
