@<TRIPOS>MOLECULE
33Y
   56    59     1     0     0
SMALL
abcg2


@<TRIPOS>ATOM
      1 F32         44.1770    -3.5840   -11.3810 f          1 33Y      -0.156000
      2 C24         43.8260    -2.4520   -12.0190 ca         1 33Y       0.124000
      3 C23         44.0940    -2.3370   -13.3780 ca         1 33Y       0.155000
      4 F26         44.7060    -3.3550   -14.0080 f          1 33Y      -0.155000
      5 C22         43.7450    -1.1940   -14.0700 ca         1 33Y      -0.135000
      6 C21         43.1050    -0.1640   -13.3930 ca         1 33Y      -0.064000
      7 C25         43.2140    -1.4260   -11.3340 ca         1 33Y      -0.077000
      8 C20         42.8360    -0.2750   -12.0290 ca         1 33Y      -0.149600
      9 C18         42.2330     0.8510   -11.2540 c          1 33Y       0.619700
     10 O19         42.6880     1.1830   -10.1700 o          1 33Y      -0.547100
     11 N12         41.1690     1.5180   -11.8420 n          1 33Y      -0.319000
     12 C13         40.6660     2.7470   -11.2200 c3         1 33Y       0.091000
     13 C14         41.0000     4.0380   -11.9730 c3         1 33Y       0.017200
     14 C27         40.4310     5.1650   -11.0840 c3         1 33Y      -0.081100
     15 C28         42.5250     4.1950   -12.0970 c3         1 33Y      -0.081100
     16 C9          40.3460     4.0550   -13.3370 cc         1 33Y      -0.120400
     17 C5          40.2070     5.2200   -14.1750 ca         1 33Y      -0.097800
     18 C6          40.6560     6.5520   -14.1080 ca         1 33Y      -0.064000
     19 C1          40.3460     7.4280   -15.1350 ca         1 33Y      -0.146000
     20 C11         40.4100     0.9210   -12.8260 c2         1 33Y       0.014600
     21 C10         39.6600     1.5700   -13.7500 cf         1 33Y      -0.183200
     22 C15         38.8580     0.6890   -14.6460 c          1 33Y       0.620300
     23 O17         38.6730    -0.5320   -14.1350 os         1 33Y      -0.465100
     24 C29         38.0760    -1.5670   -14.9800 c3         1 33Y       0.179300
     25 C31         39.1630    -2.1820   -15.8420 c3         1 33Y      -0.105600
     26 C30         37.4280    -2.5520   -14.0300 c3         1 33Y      -0.105600
     27 O16         38.4130     1.0170   -15.7350 o          1 33Y      -0.520000
     28 C8          39.7240     3.0070   -14.0150 cd         1 33Y      -0.002100
     29 N7          39.1790     3.5010   -15.1900 na         1 33Y      -0.221700
     30 C4          39.4650     4.8270   -15.3220 ca         1 33Y      -0.031200
     31 C3          39.1460     5.7070   -16.3560 ca         1 33Y      -0.129000
     32 C2          39.5920     7.0130   -16.2480 ca         1 33Y      -0.090000
     33 H22         43.9740    -1.1210   -15.1250 ha         1 33Y       0.144000
     34 H21         42.8360     0.7340   -13.9310 ha         1 33Y       0.139000
     35 H25         43.0260    -1.5260   -10.2740 ha         1 33Y       0.153000
     36 H113        41.0980     2.7900   -10.2250 h1         1 33Y       0.070700
     37 H213        39.5840     2.6440   -11.1240 h1         1 33Y       0.070700
     38 H127        40.8700     5.1080   -10.0860 hc         1 33Y       0.040033
     39 H227        40.6500     6.1490   -11.4890 hc         1 33Y       0.040033
     40 H327        39.3470     5.0710   -10.9910 hc         1 33Y       0.040033
     41 H128        42.7760     5.1220   -12.6110 hc         1 33Y       0.040033
     42 H228        42.9890     4.2150   -11.1090 hc         1 33Y       0.040033
     43 H328        42.9550     3.3700   -12.6670 hc         1 33Y       0.040033
     44 H6          41.2520     6.9010   -13.2780 ha         1 33Y       0.111000
     45 H1          40.6960     8.4510   -15.0840 ha         1 33Y       0.109000
     46 H11         40.4220    -0.1560   -12.8270 h4         1 33Y       0.212000
     47 H29         37.3230    -1.0840   -15.6020 h1         1 33Y       0.071700
     48 H131        38.7340    -2.9670   -16.4670 hc         1 33Y       0.049533
     49 H231        39.6180    -1.4350   -16.4930 hc         1 33Y       0.049533
     50 H331        39.9390    -2.6240   -15.2140 hc         1 33Y       0.049533
     51 H130        36.9450    -3.3450   -14.6040 hc         1 33Y       0.049533
     52 H230        38.1750    -3.0060   -13.3760 hc         1 33Y       0.049533
     53 H330        36.6730    -2.0600   -13.4160 hc         1 33Y       0.049533
     54 HN7         38.7310     2.9000   -15.8650 hn         1 33Y       0.383000
     55 H3          38.5750     5.3730   -17.2140 ha         1 33Y       0.116000
     56 H2          39.3660     7.7230   -17.0340 ha         1 33Y       0.110000
@<TRIPOS>BOND
     1     1     2 1   
     2     2     3 ar  
     3     2     7 ar  
     4     3     4 1   
     5     3     5 ar  
     6     5     6 ar  
     7     5    33 1   
     8     6     8 ar  
     9     6    34 1   
    10     7     8 ar  
    11     7    35 1   
    12     8     9 1   
    13     9    10 2   
    14     9    11 1   
    15    11    12 1   
    16    11    20 1   
    17    12    13 1   
    18    12    36 1   
    19    12    37 1   
    20    13    14 1   
    21    13    15 1   
    22    13    16 1   
    23    14    38 1   
    24    14    39 1   
    25    14    40 1   
    26    15    41 1   
    27    15    42 1   
    28    15    43 1   
    29    16    17 1   
    30    16    28 2   
    31    17    18 ar  
    32    17    30 ar  
    33    18    19 ar  
    34    18    44 1   
    35    19    32 ar  
    36    19    45 1   
    37    20    21 2   
    38    20    46 1   
    39    21    22 1   
    40    21    28 1   
    41    22    23 1   
    42    22    27 2   
    43    23    24 1   
    44    24    25 1   
    45    24    26 1   
    46    24    47 1   
    47    25    48 1   
    48    25    49 1   
    49    25    50 1   
    50    26    51 1   
    51    26    52 1   
    52    26    53 1   
    53    28    29 1   
    54    29    30 1   
    55    29    54 1   
    56    30    31 ar  
    57    31    32 ar  
    58    31    55 1   
    59    32    56 1   
@<TRIPOS>SUBSTRUCTURE
     1 33Y         1 TEMP              0 ****  ****    0 ROOT
