@<TRIPOS>MOLECULE
33Y
   56    59     1     0     0
SMALL
No Charge or Current Charge


@<TRIPOS>ATOM
      1 F32         44.9610    -3.1760   -11.5830 f          1 33Y      -0.156000
      2 C24         44.2770    -2.2070   -12.2350 ca         1 33Y       0.124000
      3 C23         44.1460    -2.2510   -13.6340 ca         1 33Y       0.155000
      4 F26         44.7010    -3.2600   -14.3440 f          1 33Y      -0.155000
      5 C22         43.4470    -1.2350   -14.3040 ca         1 33Y      -0.135000
      6 C21         42.8680    -0.1800   -13.5760 ca         1 33Y      -0.064000
      7 C25         43.6990    -1.1560   -11.5050 ca         1 33Y      -0.077000
      8 C20         42.9660    -0.1410   -12.1630 ca         1 33Y      -0.149600
      9 C18         42.3700     0.9870   -11.3420 c          1 33Y       0.619700
     10 O19         42.9670     1.4040   -10.3570 o          1 33Y      -0.547100
     11 N12         41.1390     1.5620   -11.7580 n          1 33Y      -0.319000
     12 C13         40.5850     2.7300   -11.0550 c3         1 33Y       0.091000
     13 C14         40.7760     4.0680   -11.8110 c3         1 33Y       0.017200
     14 C27         39.9370     5.1210   -11.0330 c3         1 33Y      -0.081100
     15 C28         42.2870     4.4330   -11.7460 c3         1 33Y      -0.081100
     16 C9          40.3180     4.0010   -13.2780 cc         1 33Y      -0.120400
     17 C5          40.3770     5.1140   -14.2180 ca         1 33Y      -0.097800
     18 C6          40.7960     6.4530   -14.0690 ca         1 33Y      -0.064000
     19 C1          40.7380     7.3100   -15.1890 ca         1 33Y      -0.146000
     20 C11         40.2790     0.9010   -12.6400 c2         1 33Y       0.014600
     21 C10         39.5620     1.4990   -13.6250 cf         1 33Y      -0.183200
     22 C15         38.6250     0.6600   -14.4680 c          1 33Y       0.620300
     23 O17         38.5730    -0.6470   -14.0460 os         1 33Y      -0.465100
     24 C29         37.8170    -1.6080   -14.8050 c3         1 33Y       0.179300
     25 C31         38.6310    -1.9900   -16.0610 c3         1 33Y      -0.105600
     26 C30         37.5820    -2.8110   -13.8740 c3         1 33Y      -0.105600
     27 O16         37.9750     1.0840   -15.4160 o          1 33Y      -0.520000
     28 C8          39.8060     2.9100   -14.0270 cd         1 33Y      -0.002100
     29 N7          39.5870     3.3420   -15.3550 na         1 33Y      -0.221700
     30 C4          39.9330     4.6660   -15.4260 ca         1 33Y      -0.031200
     31 C3          39.8640     5.4900   -16.5580 ca         1 33Y      -0.129000
     32 C2          40.2720     6.8310   -16.4320 ca         1 33Y      -0.090000
     33 H22         43.3650    -1.2600   -15.3880 ha         1 33Y       0.144000
     34 H21         42.3670     0.6170   -14.1220 ha         1 33Y       0.139000
     35 H25         43.8120    -1.1380   -10.4230 ha         1 33Y       0.153000
     36 H113        41.0050     2.8080   -10.0440 h1         1 33Y       0.070700
     37 H213        39.5080     2.5570   -10.9240 h1         1 33Y       0.070700
     38 H127        40.2150     5.1350    -9.9720 hc         1 33Y       0.040033
     39 H227        40.0740     6.1350   -11.4150 hc         1 33Y       0.040033
     40 H327        38.8680     4.8850   -11.0970 hc         1 33Y       0.040033
     41 H128        42.4890     5.4370   -12.1290 hc         1 33Y       0.040033
     42 H228        42.6540     4.4020   -10.7120 hc         1 33Y       0.040033
     43 H328        42.8820     3.7290   -12.3380 hc         1 33Y       0.040033
     44 H6          41.1620     6.8460   -13.1280 ha         1 33Y       0.111000
     45 H1          41.0570     8.3460   -15.0940 ha         1 33Y       0.109000
     46 H11         40.1730    -0.1610   -12.4120 h4         1 33Y       0.212000
     47 H29         36.8390    -1.2030   -15.1030 h1         1 33Y       0.071700
     48 H131        38.1250    -2.7900   -16.6150 hc         1 33Y       0.049533
     49 H231        38.7430    -1.1350   -16.7380 hc         1 33Y       0.049533
     50 H331        39.6310    -2.3460   -15.7840 hc         1 33Y       0.049533
     51 H130        37.0110    -3.5910   -14.3910 hc         1 33Y       0.049533
     52 H230        38.5350    -3.2420   -13.5440 hc         1 33Y       0.049533
     53 H330        37.0140    -2.5040   -12.9880 hc         1 33Y       0.049533
     54 HN7         39.1850     2.7780   -16.0980 hn         1 33Y       0.383000
     55 H3          39.5050     5.1060   -17.5100 ha         1 33Y       0.116000
     56 H2          40.2310     7.4960   -17.2920 ha         1 33Y       0.110000
@<TRIPOS>BOND
     1     1     2 1   
     2     2     3 ar  
     3     2     7 ar  
     4     3     4 1   
     5     3     5 ar  
     6     5     6 ar  
     7     5    33 1   
     8     6     8 ar  
     9     6    34 1   
    10     7     8 ar  
    11     7    35 1   
    12     8     9 1   
    13     9    10 2   
    14     9    11 1   
    15    11    12 1   
    16    11    20 1   
    17    12    13 1   
    18    12    36 1   
    19    12    37 1   
    20    13    14 1   
    21    13    15 1   
    22    13    16 1   
    23    14    38 1   
    24    14    39 1   
    25    14    40 1   
    26    15    41 1   
    27    15    42 1   
    28    15    43 1   
    29    16    17 1   
    30    16    28 2   
    31    17    18 ar  
    32    17    30 ar  
    33    18    19 ar  
    34    18    44 1   
    35    19    32 ar  
    36    19    45 1   
    37    20    21 2   
    38    20    46 1   
    39    21    22 1   
    40    21    28 1   
    41    22    23 1   
    42    22    27 2   
    43    23    24 1   
    44    24    25 1   
    45    24    26 1   
    46    24    47 1   
    47    25    48 1   
    48    25    49 1   
    49    25    50 1   
    50    26    51 1   
    51    26    52 1   
    52    26    53 1   
    53    28    29 1   
    54    29    30 1   
    55    29    54 1   
    56    30    31 ar  
    57    31    32 ar  
    58    31    55 1   
    59    32    56 1   
@<TRIPOS>SUBSTRUCTURE
     1 33Y         1 TEMP              0 ****  ****    0 ROOT
