@<TRIPOS>MOLECULE
33Z
   80    82     1     0     0
SMALL
No Charge or Current Charge


@<TRIPOS>ATOM
      1 C49         38.2610    18.5760    61.8150 ca         1 33Z      -0.086000
      2 C50         38.3100    18.7250    60.4180 ca         1 33Z      -0.114000
      3 C51         37.3330    19.4870    59.7580 ca         1 33Z      -0.107000
      4 C52         36.3070    20.1020    60.4950 ca         1 33Z      -0.114000
      5 C53         36.2570    19.9530    61.8920 ca         1 33Z      -0.086000
      6 C48         37.2330    19.1870    62.5610 ca         1 33Z      -0.083300
      7 C47         37.1740    19.0110    64.0750 c3         1 33Z       0.230900
      8 O46         37.0980    17.6080    64.3630 os         1 33Z      -0.439100
      9 C44         36.9880    17.2250    65.6670 c          1 33Z       0.643100
     10 O45         36.9330    17.9780    66.6240 o          1 33Z      -0.584000
     11 N43         36.9300    15.8600    65.7850 ns         1 33Z      -0.468900
     12 C34         37.0260    14.9000    64.6600 c3         1 33Z       0.035700
     13 C35         37.4180    13.4910    65.1690 c3         1 33Z      -0.065100
     14 C36         38.7270    13.4840    65.9510 ca         1 33Z      -0.042300
     15 C37         39.9460    13.7450    65.2930 ca         1 33Z      -0.095500
     16 C38         41.1550    13.7430    66.0100 ca         1 33Z      -0.119500
     17 C41         41.1540    13.4790    67.3890 ca         1 33Z      -0.132000
     18 C40         39.9440    13.2150    68.0510 ca         1 33Z      -0.119500
     19 C39         38.7340    13.2160    67.3350 ca         1 33Z      -0.095500
     20 C32         35.7000    14.8530    63.8470 c          1 33Z       0.594100
     21 O33         34.5990    15.0970    64.3290 o          1 33Z      -0.615100
     22 N31         35.8680    14.4950    62.5200 ns         1 33Z      -0.453900
     23 C27         34.7860    14.3820    61.4950 c3         1 33Z      -0.231300
     24 C28         34.7540    15.6270    60.5550 c3         1 33Z      -0.039700
     25 C30         36.0710    15.8300    59.7670 c3         1 33Z      -0.080100
     26 C29         34.3680    16.9140    61.3200 c3         1 33Z      -0.080100
     27 P24         34.7170    12.7140    60.6280 p5         1 33Z       1.364000
     28 O25         34.2370    12.8540    59.2170 o          1 33Z      -0.797000
     29 O26         33.8840    11.7620    61.4270 o          1 33Z      -0.797000
     30 C23         36.4890    12.1580    60.6410 c3         1 33Z      -0.398400
     31 C1          36.8210    10.9340    59.7190 c3         1 33Z      -0.143400
     32 C2          36.0170     9.6480    60.0610 c          1 33Z       0.748000
     33 O14         36.1940     9.1130    61.1470 o          1 33Z      -0.725000
     34 O13         35.2900     9.1800    59.1960 o          1 33Z      -0.725000
     35 C3          38.3210    10.6220    59.6560 ca         1 33Z       0.045700
     36 C8          38.9390    10.4050    58.4080 ca         1 33Z      -0.153000
     37 C4          39.1060    10.5470    60.8270 ca         1 33Z      -0.120000
     38 C5          40.4810    10.2740    60.7480 ca         1 33Z      -0.106000
     39 C6          41.0840    10.0650    59.4970 ca         1 33Z      -0.212000
     40 C7          40.3130    10.1210    58.3280 ca         1 33Z       0.269000
     41 N9          40.9330     9.9140    57.1000 nu         1 33Z      -0.977200
     42 C10         40.6180     9.1420    56.0930 c2         1 33Z       0.788100
     43 N12         39.7920     8.2300    56.2030 n2         1 33Z      -0.888100
     44 N11         41.6950     9.1160    55.3630 nv         1 33Z      -1.044200
     45 H49         39.0180    17.9790    62.3190 ha         1 33Z       0.115000
     46 H50         39.1030    18.2470    59.8490 ha         1 33Z       0.106500
     47 H51         37.3690    19.6000    58.6760 ha         1 33Z       0.103000
     48 H52         35.5480    20.6910    59.9840 ha         1 33Z       0.106500
     49 H53         35.4550    20.4290    62.4530 ha         1 33Z       0.115000
     50 H471        38.0720    19.4520    64.5270 h1         1 33Z       0.045200
     51 H472        36.2960    19.5360    64.4760 h1         1 33Z       0.045200
     52 HN43        36.8350    15.5040    66.7270 hn         1 33Z       0.334500
     53 H34         37.8160    15.2460    63.9800 h1         1 33Z       0.054700
     54 H351        36.5990    13.0920    65.7820 hc         1 33Z       0.111200
     55 H352        37.5030    12.8100    64.3120 hc         1 33Z       0.111200
     56 H37         39.9560    13.9500    64.2250 ha         1 33Z       0.116500
     57 H38         42.0910    13.9470    65.4960 ha         1 33Z       0.095500
     58 H41         42.0890    13.4770    67.9440 ha         1 33Z       0.088000
     59 H40         39.9420    13.0090    69.1190 ha         1 33Z       0.095500
     60 H39         37.8030    13.0110    67.8590 ha         1 33Z       0.116500
     61 HN31        36.8220    14.3120    62.2260 hn         1 33Z       0.294500
     62 H27         33.8250    14.3510    62.0220 h1         1 33Z       0.084700
     63 H28         33.9580    15.4620    59.8170 hc         1 33Z       0.066700
     64 H301        35.9890    16.6980    59.1010 hc         1 33Z       0.018367
     65 H302        36.9160    16.0030    60.4440 hc         1 33Z       0.018367
     66 H303        36.2990    14.9570    59.1460 hc         1 33Z       0.018367
     67 H291        35.1330    17.1790    62.0590 hc         1 33Z       0.018367
     68 H292        34.2580    17.7570    60.6270 hc         1 33Z       0.018367
     69 H293        33.4140    16.7830    61.8450 hc         1 33Z       0.018367
     70 H231        37.1060    13.0120    60.3440 hc         1 33Z       0.021700
     71 H232        36.7300    11.9240    61.6830 hc         1 33Z       0.021700
     72 H1          36.5070    11.2260    58.7090 hc         1 33Z       0.064700
     73 H8          38.3520    10.4700    57.4970 ha         1 33Z       0.131000
     74 H4          38.6520    10.6980    61.8020 ha         1 33Z       0.117000
     75 H5          41.0780    10.2220    61.6560 ha         1 33Z       0.079000
     76 H6          42.1480     9.8540    59.4420 ha         1 33Z       0.076000
     77 HN9         41.9400     9.9800    57.1360 hn         1 33Z       0.462000
     78 HN12        39.3040     8.4480    57.0770 hn         1 33Z       0.436400
     79 H111        41.6240     8.3880    54.6660 hn         1 33Z       0.446500
     80 H112        41.8990    10.0250    54.9710 hn         1 33Z       0.446500
@<TRIPOS>BOND
     1     1     2 ar  
     2     1     6 ar  
     3     1    45 1   
     4     2     3 ar  
     5     2    46 1   
     6     3     4 ar  
     7     3    47 1   
     8     4     5 ar  
     9     4    48 1   
    10     5     6 ar  
    11     5    49 1   
    12     6     7 1   
    13     7     8 1   
    14     7    50 1   
    15     7    51 1   
    16     8     9 1   
    17     9    10 2   
    18     9    11 1   
    19    11    12 1   
    20    11    52 1   
    21    12    13 1   
    22    12    20 1   
    23    12    53 1   
    24    13    14 1   
    25    13    54 1   
    26    13    55 1   
    27    14    15 ar  
    28    14    19 ar  
    29    15    16 ar  
    30    15    56 1   
    31    16    17 ar  
    32    16    57 1   
    33    17    18 ar  
    34    17    58 1   
    35    18    19 ar  
    36    18    59 1   
    37    19    60 1   
    38    20    21 2   
    39    20    22 1   
    40    22    23 1   
    41    22    61 1   
    42    23    24 1   
    43    23    27 1   
    44    23    62 1   
    45    24    25 1   
    46    24    26 1   
    47    24    63 1   
    48    25    64 1   
    49    25    65 1   
    50    25    66 1   
    51    26    67 1   
    52    26    68 1   
    53    26    69 1   
    54    27    28 1   
    55    27    29 1   
    56    27    30 1   
    57    30    31 1   
    58    30    70 1   
    59    30    71 1   
    60    31    32 1   
    61    31    35 1   
    62    31    72 1   
    63    32    33 1   
    64    32    34 1   
    65    35    36 ar  
    66    35    37 ar  
    67    36    40 ar  
    68    36    73 1   
    69    37    38 ar  
    70    37    74 1   
    71    38    39 ar  
    72    38    75 1   
    73    39    40 ar  
    74    39    76 1   
    75    40    41 1   
    76    41    42 1   
    77    41    77 1   
    78    42    43 2   
    79    42    44 1   
    80    43    78 1   
    81    44    79 1   
    82    44    80 1   
@<TRIPOS>SUBSTRUCTURE
     1 33Z         1 TEMP              0 ****  ****    0 ROOT
