@<TRIPOS>MOLECULE
33Z
   80    82     1     0     0
SMALL
abcg2


@<TRIPOS>ATOM
      1 C49         37.7260    18.8780    62.3920 ca         1 33Z      -0.086000
      2 C50         37.8570    19.3360    61.0900 ca         1 33Z      -0.114000
      3 C51         36.9580    20.2660    60.5810 ca         1 33Z      -0.107000
      4 C52         35.9230    20.7290    61.3800 ca         1 33Z      -0.114000
      5 C53         35.7860    20.2600    62.6810 ca         1 33Z      -0.086000
      6 C48         36.6860    19.3360    63.2000 ca         1 33Z      -0.083300
      7 C47         36.5450    18.8730    64.6190 c3         1 33Z       0.230900
      8 O46         36.6240    17.4480    64.6290 os         1 33Z      -0.439100
      9 C44         36.5250    16.8420    65.8150 c          1 33Z       0.643100
     10 O45         36.3110    17.4250    66.8580 o          1 33Z      -0.584000
     11 N43         36.7020    15.5110    65.7010 ns         1 33Z      -0.468900
     12 C34         36.8790    14.8050    64.4590 c3         1 33Z       0.035700
     13 C35         37.1150    13.3150    64.7510 c3         1 33Z      -0.065100
     14 C36         38.4470    13.0640    65.3990 ca         1 33Z      -0.042300
     15 C37         39.6040    13.0550    64.6200 ca         1 33Z      -0.095500
     16 C38         40.8480    12.8500    65.1980 ca         1 33Z      -0.119500
     17 C41         40.9540    12.6450    66.5690 ca         1 33Z      -0.132000
     18 C40         39.8090    12.6450    67.3530 ca         1 33Z      -0.119500
     19 C39         38.5650    12.8520    66.7690 ca         1 33Z      -0.095500
     20 C32         35.6520    14.9230    63.5520 c          1 33Z       0.594100
     21 O33         34.5200    14.9070    64.0080 o          1 33Z      -0.615100
     22 N31         35.9570    14.9720    62.2480 ns         1 33Z      -0.453900
     23 C27         35.0320    14.7120    61.1630 c3         1 33Z      -0.231300
     24 C28         35.0320    15.8220    60.1060 c3         1 33Z      -0.039700
     25 C30         36.3710    16.0180    59.4020 c3         1 33Z      -0.080100
     26 C29         34.5450    17.1360    60.7100 c3         1 33Z      -0.080100
     27 P24         35.2500    12.9430    60.5760 p5         1 33Z       1.364000
     28 O25         34.6660    12.8280    59.1810 o          1 33Z      -0.797000
     29 O26         34.6990    12.0720    61.6880 o          1 33Z      -0.797000
     30 C23         37.0760    12.6950    60.4850 c3         1 33Z      -0.398400
     31 C1          37.4340    11.2610    60.0970 c3         1 33Z      -0.143400
     32 C2          37.2080    10.2310    61.2480 c          1 33Z       0.748000
     33 O14         37.6480    10.5450    62.3710 o          1 33Z      -0.725000
     34 O13         36.6710     9.1550    60.9270 o          1 33Z      -0.725000
     35 C3          38.8730    11.1120    59.6710 ca         1 33Z       0.045700
     36 C8          39.1910    10.2200    58.6490 ca         1 33Z      -0.153000
     37 C4          39.9080    11.8040    60.2990 ca         1 33Z      -0.120000
     38 C5          41.2220    11.6060    59.9020 ca         1 33Z      -0.106000
     39 C6          41.5350    10.6980    58.9030 ca         1 33Z      -0.212000
     40 C7          40.5140     9.9930    58.2680 ca         1 33Z       0.269000
     41 N9          40.8380     9.1220    57.2250 nu         1 33Z      -0.977200
     42 C10         40.2940     7.8650    57.0170 c2         1 33Z       0.788100
     43 N12         39.4550     7.2410    57.7490 n2         1 33Z      -0.888100
     44 N11         40.8050     7.2720    55.8860 nv         1 33Z      -1.044200
     45 H49         38.4390    18.1590    62.7770 ha         1 33Z       0.115000
     46 H50         38.6650    18.9680    60.4710 ha         1 33Z       0.106500
     47 H51         37.0630    20.6240    59.5650 ha         1 33Z       0.103000
     48 H52         35.2150    21.4490    60.9910 ha         1 33Z       0.106500
     49 H53         34.9680    20.6160    63.2950 ha         1 33Z       0.115000
     50 H471        37.3440    19.2890    65.2390 h1         1 33Z       0.045200
     51 H472        35.5930    19.2060    65.0360 h1         1 33Z       0.045200
     52 HN43        36.5320    14.9770    66.5390 hn         1 33Z       0.334500
     53 H34         37.7610    15.1930    63.9390 h1         1 33Z       0.054700
     54 H351        36.3020    12.9430    65.3800 hc         1 33Z       0.111200
     55 H352        37.0600    12.7600    63.8120 hc         1 33Z       0.111200
     56 H37         39.5270    13.2100    63.5500 ha         1 33Z       0.116500
     57 H38         41.7360    12.8430    64.5790 ha         1 33Z       0.095500
     58 H41         41.9230    12.4810    67.0220 ha         1 33Z       0.088000
     59 H40         39.8810    12.4820    68.4200 ha         1 33Z       0.095500
     60 H39         37.6740    12.8410    67.3870 ha         1 33Z       0.116500
     61 HN31        36.9370    14.9870    62.0120 hn         1 33Z       0.294500
     62 H27         34.0320    14.7000    61.6060 h1         1 33Z       0.084700
     63 H28         34.3040    15.5080    59.3520 hc         1 33Z       0.066700
     64 H301        36.3130    16.8560    58.7060 hc         1 33Z       0.018367
     65 H302        37.1740    16.2460    60.1070 hc         1 33Z       0.018367
     66 H303        36.6640    15.1380    58.8310 hc         1 33Z       0.018367
     67 H291        35.2440    17.5210    61.4540 hc         1 33Z       0.018367
     68 H292        34.4370    17.9020    59.9390 hc         1 33Z       0.018367
     69 H293        33.5730    17.0180    61.1940 hc         1 33Z       0.018367
     70 H231        37.4920    13.3870    59.7480 hc         1 33Z       0.021700
     71 H232        37.5410    12.9340    61.4420 hc         1 33Z       0.021700
     72 H1          36.8120    10.9610    59.2480 hc         1 33Z       0.064700
     73 H8          38.3860     9.7160    58.1280 ha         1 33Z       0.131000
     74 H4          39.6940    12.5110    61.0890 ha         1 33Z       0.117000
     75 H5          42.0190    12.1560    60.3860 ha         1 33Z       0.079000
     76 H6          42.5660    10.5380    58.6110 ha         1 33Z       0.076000
     77 HN9         41.7450     9.2690    56.8090 hn         1 33Z       0.462000
     78 HN12        39.2650     7.7320    58.6140 hn         1 33Z       0.436400
     79 H111        40.3270     6.4260    55.6220 hn         1 33Z       0.446500
     80 H112        40.9860     7.8780    55.1000 hn         1 33Z       0.446500
@<TRIPOS>BOND
     1     1     2 ar  
     2     1     6 ar  
     3     1    45 1   
     4     2     3 ar  
     5     2    46 1   
     6     3     4 ar  
     7     3    47 1   
     8     4     5 ar  
     9     4    48 1   
    10     5     6 ar  
    11     5    49 1   
    12     6     7 1   
    13     7     8 1   
    14     7    50 1   
    15     7    51 1   
    16     8     9 1   
    17     9    10 2   
    18     9    11 1   
    19    11    12 1   
    20    11    52 1   
    21    12    13 1   
    22    12    20 1   
    23    12    53 1   
    24    13    14 1   
    25    13    54 1   
    26    13    55 1   
    27    14    15 ar  
    28    14    19 ar  
    29    15    16 ar  
    30    15    56 1   
    31    16    17 ar  
    32    16    57 1   
    33    17    18 ar  
    34    17    58 1   
    35    18    19 ar  
    36    18    59 1   
    37    19    60 1   
    38    20    21 2   
    39    20    22 1   
    40    22    23 1   
    41    22    61 1   
    42    23    24 1   
    43    23    27 1   
    44    23    62 1   
    45    24    25 1   
    46    24    26 1   
    47    24    63 1   
    48    25    64 1   
    49    25    65 1   
    50    25    66 1   
    51    26    67 1   
    52    26    68 1   
    53    26    69 1   
    54    27    28 1   
    55    27    29 1   
    56    27    30 1   
    57    30    31 1   
    58    30    70 1   
    59    30    71 1   
    60    31    32 1   
    61    31    35 1   
    62    31    72 1   
    63    32    33 1   
    64    32    34 1   
    65    35    36 ar  
    66    35    37 ar  
    67    36    40 ar  
    68    36    73 1   
    69    37    38 ar  
    70    37    74 1   
    71    38    39 ar  
    72    38    75 1   
    73    39    40 ar  
    74    39    76 1   
    75    40    41 1   
    76    41    42 1   
    77    41    77 1   
    78    42    43 2   
    79    42    44 1   
    80    43    78 1   
    81    44    79 1   
    82    44    80 1   
@<TRIPOS>SUBSTRUCTURE
     1 33Z         1 TEMP              0 ****  ****    0 ROOT
