@<TRIPOS>MOLECULE
340
   40    42     1     0     0
SMALL
abcg2


@<TRIPOS>ATOM
      1 C1           0.8610     0.3940     3.5060 cc         1 340      -0.411200
      2 C2          -0.6030     0.4140     3.4210 c          1 340       0.625900
      3 C3          -1.1510     0.0800     2.1120 cc         1 340      -0.214600
      4 C4          -0.3750    -0.2470     1.0190 cd         1 340      -0.182600
      5 C5           1.0710    -0.2850     1.1030 c          1 340       0.608900
      6 C6           1.6450     0.0810     2.4540 cd         1 340       0.096900
      7 N7          -2.4540     0.0260     1.7360 na         1 340       0.085000
      8 C8          -2.5290    -0.3280     0.4180 cc         1 340      -0.130300
      9 C9          -1.2450    -0.5120    -0.0610 cd         1 340      -0.103300
     10 O10          1.8080    -0.5850     0.1910 o          1 340      -0.466100
     11 O11         -1.2920     0.6920     4.3890 o          1 340      -0.540100
     12 C12         -3.5940     0.2970     2.5920 c3         1 340       0.048900
     13 C19         -0.8510    -0.8910    -1.4420 c3         1 340       0.239900
     14 O20         -0.2970     0.2580    -2.0680 os         1 340      -0.339100
     15 C24          0.2740     0.1190    -3.2800 ca         1 340       0.150100
     16 C25          0.9050     1.2540    -3.7960 ca         1 340      -0.172500
     17 C26          1.5160     1.2070    -5.0370 ca         1 340      -0.074500
     18 C27          1.5110     0.0340    -5.7860 ca         1 340      -0.151000
     19 C28          0.8810    -1.0880    -5.2730 ca         1 340      -0.074500
     20 C29          0.2610    -1.0570    -4.0270 ca         1 340      -0.172500
     21 C37         -3.8260    -0.4640    -0.2940 c3         1 340      -0.034800
     22 O44          2.9630     0.0450     2.4410 os         1 340      -0.298100
     23 C45          3.6600     0.3630     3.6360 c3         1 340       0.136900
     24 H11          1.2760     0.6520     4.4710 ha         1 340       0.207000
     25 H121        -3.5400     1.3060     2.9930 h1         1 340       0.065033
     26 H122        -4.5070     0.2040     2.0140 h1         1 340       0.065033
     27 H123        -3.6310    -0.4110     3.4160 h1         1 340       0.065033
     28 H191        -0.1170    -1.7020    -1.4180 h1         1 340       0.044700
     29 H192        -1.7150    -1.2540    -2.0070 h1         1 340       0.044700
     30 H251         0.9100     2.1680    -3.2150 ha         1 340       0.119500
     31 H261         2.0030     2.0940    -5.4200 ha         1 340       0.109500
     32 H271         1.9930    -0.0010    -6.7540 ha         1 340       0.112000
     33 H281         0.8670    -2.0090    -5.8420 ha         1 340       0.109500
     34 H291        -0.2250    -1.9530    -3.6650 ha         1 340       0.119500
     35 H371        -4.3940     0.4680    -0.2830 hc         1 340       0.053033
     36 H372        -3.6600    -0.7280    -1.3360 hc         1 340       0.053033
     37 H373        -4.4530    -1.2410     0.1450 hc         1 340       0.053033
     38 H451         4.7180     0.2910     3.4040 h1         1 340       0.050367
     39 H452         3.4310     1.3770     3.9700 h1         1 340       0.050367
     40 H453         3.4160    -0.3410     4.4350 h1         1 340       0.050367
@<TRIPOS>BOND
     1     1     2 1   
     2     1     6 2   
     3     1    24 1   
     4     2     3 1   
     5     2    11 2   
     6     3     4 2   
     7     3     7 1   
     8     4     5 1   
     9     4     9 1   
    10     5     6 1   
    11     5    10 2   
    12     6    22 1   
    13     7     8 1   
    14     7    12 1   
    15     8     9 2   
    16     8    21 1   
    17     9    13 1   
    18    12    25 1   
    19    12    26 1   
    20    12    27 1   
    21    13    14 1   
    22    13    28 1   
    23    13    29 1   
    24    14    15 1   
    25    15    16 ar  
    26    15    20 ar  
    27    16    17 ar  
    28    16    30 1   
    29    17    18 ar  
    30    17    31 1   
    31    18    19 ar  
    32    18    32 1   
    33    19    20 ar  
    34    19    33 1   
    35    20    34 1   
    36    21    35 1   
    37    21    36 1   
    38    21    37 1   
    39    22    23 1   
    40    23    38 1   
    41    23    39 1   
    42    23    40 1   
@<TRIPOS>SUBSTRUCTURE
     1 340         1 TEMP              0 ****  ****    0 ROOT
