@<TRIPOS>MOLECULE
340
   40    42     1     0     0
SMALL
No Charge or Current Charge


@<TRIPOS>ATOM
      1 C1           0.8860     0.3660     3.6600 cc         1 340      -0.411200
      2 C2          -0.5720     0.4660     3.5160 c          1 340       0.625900
      3 C3          -1.1060     0.1130     2.1780 cc         1 340      -0.214600
      4 C4          -0.3090    -0.2730     1.1250 cd         1 340      -0.182600
      5 C5           1.1780    -0.3740     1.2490 c          1 340       0.608900
      6 C6           1.7130    -0.0220     2.6110 cd         1 340       0.096900
      7 N7          -2.4210     0.0940     1.7060 na         1 340       0.085000
      8 C8          -2.4370    -0.2750     0.3540 cc         1 340      -0.130300
      9 C9          -1.1330    -0.5240    -0.0060 cd         1 340      -0.103300
     10 O10          1.9030    -0.7160     0.3190 o          1 340      -0.466100
     11 O11         -1.2770     0.8180     4.4500 o          1 340      -0.540100
     12 C12         -3.6100     0.4200     2.5140 c3         1 340       0.048900
     13 C19         -0.6570    -0.9690    -1.3730 c3         1 340       0.239900
     14 O20         -0.2710     0.1970    -2.1220 os         1 340      -0.339100
     15 C24          0.2110     0.1140    -3.4110 ca         1 340       0.150100
     16 C25          0.5640     1.3110    -4.0560 ca         1 340      -0.172500
     17 C26          1.0610     1.2930    -5.3700 ca         1 340      -0.074500
     18 C27          1.2070     0.0700    -6.0460 ca         1 340      -0.151000
     19 C28          0.8570    -1.1320    -5.4090 ca         1 340      -0.074500
     20 C29          0.3590    -1.1140    -4.0930 ca         1 340      -0.172500
     21 C37         -3.6850    -0.3640    -0.4940 c3         1 340      -0.034800
     22 O44          3.0800    -0.0950     2.8030 os         1 340      -0.298100
     23 C45          3.7020     0.2180     4.0630 c3         1 340       0.136900
     24 H11          1.2420     0.6260     4.6480 ha         1 340       0.207000
     25 H121        -3.6330     1.4990     2.7080 h1         1 340       0.065033
     26 H122        -4.5270     0.1260     1.9920 h1         1 340       0.065033
     27 H123        -3.5640    -0.1190     3.4670 h1         1 340       0.065033
     28 H191         0.1840    -1.6630    -1.2650 h1         1 340       0.044700
     29 H192        -1.4650    -1.5070    -1.8850 h1         1 340       0.044700
     30 H251         0.4510     2.2580    -3.5330 ha         1 340       0.119500
     31 H261         1.3320     2.2240    -5.8640 ha         1 340       0.109500
     32 H271         1.5920     0.0540    -7.0630 ha         1 340       0.112000
     33 H281         0.9710    -2.0780    -5.9340 ha         1 340       0.109500
     34 H291         0.0960    -2.0580    -3.6240 ha         1 340       0.119500
     35 H371        -4.3310     0.5080    -0.3400 hc         1 340       0.053033
     36 H372        -3.4460    -0.4010    -1.5630 hc         1 340       0.053033
     37 H373        -4.2610    -1.2640    -0.2470 hc         1 340       0.053033
     38 H451         4.7890     0.0930     3.9900 h1         1 340       0.050367
     39 H452         3.5010     1.2580     4.3520 h1         1 340       0.050367
     40 H453         3.3390    -0.4480     4.8560 h1         1 340       0.050367
@<TRIPOS>BOND
     1     1     2 1   
     2     1     6 2   
     3     1    24 1   
     4     2     3 1   
     5     2    11 2   
     6     3     4 2   
     7     3     7 1   
     8     4     5 1   
     9     4     9 1   
    10     5     6 1   
    11     5    10 2   
    12     6    22 1   
    13     7     8 1   
    14     7    12 1   
    15     8     9 2   
    16     8    21 1   
    17     9    13 1   
    18    12    25 1   
    19    12    26 1   
    20    12    27 1   
    21    13    14 1   
    22    13    28 1   
    23    13    29 1   
    24    14    15 1   
    25    15    16 ar  
    26    15    20 ar  
    27    16    17 ar  
    28    16    30 1   
    29    17    18 ar  
    30    17    31 1   
    31    18    19 ar  
    32    18    32 1   
    33    19    20 ar  
    34    19    33 1   
    35    20    34 1   
    36    21    35 1   
    37    21    36 1   
    38    21    37 1   
    39    22    23 1   
    40    23    38 1   
    41    23    39 1   
    42    23    40 1   
@<TRIPOS>SUBSTRUCTURE
     1 340         1 TEMP              0 ****  ****    0 ROOT
