@<TRIPOS>MOLECULE
341
   16    16     1     0     0
SMALL
abcg2


@<TRIPOS>ATOM
      1 C3           1.0370    -1.1820    -0.0310 ca         1 341       0.196000
      2 C4          -0.3290    -1.2190    -0.2340 ca         1 341      -0.150500
      3 C5          -1.0250    -0.0200    -0.3400 ca         1 341      -0.034300
      4 C6          -0.3460     1.1890    -0.2330 ca         1 341      -0.150500
      5 C1           1.0190     1.1710    -0.0310 ca         1 341       0.196000
      6 C2           1.7450    -0.0000     0.0750 ca         1 341      -0.193000
      7 F8           1.6760     2.3350     0.0670 f          1 341      -0.173000
      8 C9          -2.5180    -0.0310    -0.5090 c3         1 341       0.204900
      9 O10         -3.0950     0.0270     0.7790 oh         1 341      -0.651000
     10 F7           1.7100    -2.3360     0.0690 f          1 341      -0.173000
     11 H4          -0.8420    -2.1690    -0.3160 ha         1 341       0.137500
     12 H6          -0.8730     2.1320    -0.3180 ha         1 341       0.137500
     13 H2           2.8160     0.0080     0.2270 ha         1 341       0.150000
     14 H9          -2.8210     0.8240    -1.1250 h1         1 341       0.029200
     15 H9A         -2.8180    -0.9380    -1.0450 h1         1 341       0.029200
     16 HO10        -4.0500     0.0740     0.6710 ho         1 341       0.445000
@<TRIPOS>BOND
     1     1     2 ar  
     2     1     6 ar  
     3     1    10 1   
     4     2     3 ar  
     5     2    11 1   
     6     3     4 ar  
     7     3     8 1   
     8     4     5 ar  
     9     4    12 1   
    10     5     6 ar  
    11     5     7 1   
    12     6    13 1   
    13     8     9 1   
    14     8    14 1   
    15     8    15 1   
    16     9    16 1   
@<TRIPOS>SUBSTRUCTURE
     1 341         1 TEMP              0 ****  ****    0 ROOT
