@<TRIPOS>MOLECULE
341
   16    16     1     0     0
SMALL
No Charge or Current Charge


@<TRIPOS>ATOM
      1 C3           1.0730    -1.2150    -0.0260 ca         1 341       0.196000
      2 C4          -0.3200    -1.2240    -0.2020 ca         1 341      -0.150500
      3 C5          -1.0300    -0.0110    -0.3030 ca         1 341      -0.034300
      4 C6          -0.3240     1.2070    -0.2230 ca         1 341      -0.150500
      5 C1           1.0690     1.2050    -0.0470 ca         1 341       0.196000
      6 C2           1.7730    -0.0030     0.0510 ca         1 341      -0.193000
      7 F8           1.7370     2.3770     0.0280 f          1 341      -0.173000
      8 C9          -2.5430    -0.0150    -0.4930 c3         1 341       0.204900
      9 O10         -3.2070    -0.0050     0.7760 oh         1 341      -0.651000
     10 F7           1.7450    -2.3830     0.0690 f          1 341      -0.173000
     11 H4          -0.8460    -2.1730    -0.2570 ha         1 341       0.137500
     12 H6          -0.8530     2.1530    -0.2950 ha         1 341       0.137500
     13 H2           2.8500     0.0000     0.1870 ha         1 341       0.150000
     14 H9          -2.8350     0.8640    -1.0830 h1         1 341       0.029200
     15 H9A         -2.8320    -0.9050    -1.0670 h1         1 341       0.029200
     16 HO10        -4.1720    -0.0080     0.5910 ho         1 341       0.445000
@<TRIPOS>BOND
     1     1     2 ar  
     2     1     6 ar  
     3     1    10 1   
     4     2     3 ar  
     5     2    11 1   
     6     3     4 ar  
     7     3     8 1   
     8     4     5 ar  
     9     4    12 1   
    10     5     6 ar  
    11     5     7 1   
    12     6    13 1   
    13     8     9 1   
    14     8    14 1   
    15     8    15 1   
    16     9    16 1   
@<TRIPOS>SUBSTRUCTURE
     1 341         1 TEMP              0 ****  ****    0 ROOT
