@<TRIPOS>MOLECULE
343
   79    81     1     0     0
SMALL
abcg2


@<TRIPOS>ATOM
      1 C49         38.1240    18.4300    62.2810 ca         1 343      -0.076500
      2 C50         38.5470    18.8320    61.0200 ca         1 343      -0.111500
      3 C51         37.7220    19.6240    60.2250 ca         1 343      -0.110000
      4 C52         36.4700    20.0030    60.6940 ca         1 343      -0.111500
      5 C53         36.0430    19.5880    61.9520 ca         1 343      -0.076500
      6 C48         36.8660    18.8040    62.7560 ca         1 343      -0.093300
      7 C47         36.4140    18.3900    64.1260 c3         1 343       0.231900
      8 O46         36.5470    16.9550    64.2230 os         1 343      -0.427100
      9 C44         36.3130    16.4040    65.4310 c          1 343       0.639100
     10 O45         35.9660    17.0390    66.4160 o          1 343      -0.598000
     11 N43         36.5240    15.0700    65.4110 ns         1 343      -0.465900
     12 C34         36.8280    14.3020    64.2160 c3         1 343       0.033700
     13 C35         37.2520    12.8740    64.6020 c3         1 343      -0.036100
     14 C36         38.5330    12.8400    65.3910 ca         1 343      -0.100300
     15 C37         39.7660    12.9570    64.7460 ca         1 343      -0.064000
     16 C38         40.9550    12.9690    65.4650 ca         1 343      -0.175500
     17 C41         40.9280    12.8630    66.8550 ca         1 343       0.100100
     18 O42         42.0660    12.8710    67.6130 oh         1 343      -0.564100
     19 C40         39.7080    12.7390    67.5150 ca         1 343      -0.175500
     20 C39         38.5280    12.7270    66.7820 ca         1 343      -0.064000
     21 C32         35.6210    14.2280    63.2720 c          1 343       0.572100
     22 O33         34.4910    13.9780    63.7050 o          1 343      -0.684100
     23 N31         35.9280    14.4090    61.9850 ns         1 343      -0.450900
     24 C27         34.9850    14.2350    60.8910 c3         1 343      -0.230300
     25 C28         34.5610    15.5750    60.2540 c3         1 343      -0.036700
     26 C30         35.7250    16.3660    59.6580 c3         1 343      -0.081600
     27 C29         33.7970    16.4310    61.2680 c3         1 343      -0.081600
     28 P24         35.6630    12.9590    59.7350 p5         1 343       1.418400
     29 O25         34.9960    13.0980    58.4000 o          1 343      -0.834000
     30 O26         35.6530    11.6270    60.4340 o          1 343      -0.834000
     31 O23         37.2120    13.4660    59.5660 os         1 343      -0.606400
     32 C1          38.3340    12.7640    60.1090 c3         1 343       0.131600
     33 C2          39.2030    13.6790    61.0150 c          1 343       0.709000
     34 O14         40.3280    13.2200    61.3160 o          1 343      -0.738000
     35 O13         38.7020    14.7590    61.4200 o          1 343      -0.738000
     36 C3          39.1090    12.1470    58.9710 ca         1 343       0.017700
     37 C8          39.1150    10.7680    58.8070 ca         1 343      -0.129000
     38 C4          39.7600    12.9550    58.0370 ca         1 343      -0.080000
     39 C5          40.4100    12.3760    56.9560 ca         1 343      -0.114000
     40 C6          40.4360    10.9940    56.8030 ca         1 343      -0.187000
     41 C7          39.7880    10.1770    57.7310 ca         1 343       0.264000
     42 N9          39.7710     8.7890    57.5230 nu         1 343      -0.976200
     43 C10         39.9180     7.8080    58.4910 c2         1 343       0.800100
     44 N12         40.1670     7.9780    59.7410 n2         1 343      -0.900100
     45 N11         39.8130     6.5360    57.9650 nv         1 343      -1.046200
     46 H49         38.7660    17.8110    62.8940 ha         1 343       0.119000
     47 H50         39.5210    18.5270    60.6570 ha         1 343       0.107500
     48 H51         38.0530    19.9370    59.2430 ha         1 343       0.098000
     49 H52         35.8190    20.6090    60.0770 ha         1 343       0.107500
     50 H53         35.0590    19.8690    62.3090 ha         1 343       0.119000
     51 H471        37.0290    18.8470    64.9040 h1         1 343       0.041200
     52 H472        35.3750    18.6680    64.2970 h1         1 343       0.041200
     53 HN43        36.2360    14.5790    66.2430 hn         1 343       0.320500
     54 H34         37.6560    14.7780    63.6960 h1         1 343       0.116700
     55 H351        36.4410    12.4110    65.1680 hc         1 343       0.073200
     56 H352        37.3660    12.3090    63.6750 hc         1 343       0.073200
     57 H37         39.8060    13.0380    63.6660 ha         1 343       0.141000
     58 H38         41.9050    13.0580    64.9500 ha         1 343       0.109000
     59 HO42        42.8410    12.9630    67.0430 ho         1 343       0.451000
     60 H40         39.6940    12.6500    68.5940 ha         1 343       0.109000
     61 H39         37.5830    12.6270    67.3050 ha         1 343       0.141000
     62 HN31        36.9070    14.5960    61.7390 hn         1 343       0.382500
     63 H27         34.0900    13.7780    61.3170 h1         1 343       0.066700
     64 H28         33.8770    15.3100    59.4430 hc         1 343       0.048700
     65 H301        35.3580    17.2880    59.2040 hc         1 343       0.023533
     66 H302        36.4440    16.6480    60.4290 hc         1 343       0.023533
     67 H303        36.2540    15.7950    58.8960 hc         1 343       0.023533
     68 H291        34.4340    16.6870    62.1170 hc         1 343       0.023533
     69 H292        33.4660    17.3650    60.8080 hc         1 343       0.023533
     70 H293        32.9190    15.9050    61.6490 hc         1 343       0.023533
     71 H1          37.9660    11.9660    60.7570 h1         1 343       0.055700
     72 H8          38.5650    10.1510    59.5040 ha         1 343       0.136000
     73 H4          39.7520    14.0310    58.1560 ha         1 343       0.130000
     74 H5          40.9130    13.0000    56.2280 ha         1 343       0.085000
     75 H6          40.9530    10.5420    55.9650 ha         1 343       0.078000
     76 HN9         39.9670     8.4910    56.5780 hn         1 343       0.466000
     77 HN12        40.3400     8.9550    59.9510 hn         1 343       0.418400
     78 H111        39.7510     5.8100    58.6630 hn         1 343       0.452500
     79 H112        39.1670     6.4170    57.1990 hn         1 343       0.452500
@<TRIPOS>BOND
     1     1     2 ar  
     2     1     6 ar  
     3     1    46 1   
     4     2     3 ar  
     5     2    47 1   
     6     3     4 ar  
     7     3    48 1   
     8     4     5 ar  
     9     4    49 1   
    10     5     6 ar  
    11     5    50 1   
    12     6     7 1   
    13     7     8 1   
    14     7    51 1   
    15     7    52 1   
    16     8     9 1   
    17     9    10 2   
    18     9    11 1   
    19    11    12 1   
    20    11    53 1   
    21    12    13 1   
    22    12    21 1   
    23    12    54 1   
    24    13    14 1   
    25    13    55 1   
    26    13    56 1   
    27    14    15 ar  
    28    14    20 ar  
    29    15    16 ar  
    30    15    57 1   
    31    16    17 ar  
    32    16    58 1   
    33    17    18 1   
    34    17    19 ar  
    35    18    59 1   
    36    19    20 ar  
    37    19    60 1   
    38    20    61 1   
    39    21    22 2   
    40    21    23 1   
    41    23    24 1   
    42    23    62 1   
    43    24    25 1   
    44    24    28 1   
    45    24    63 1   
    46    25    26 1   
    47    25    27 1   
    48    25    64 1   
    49    26    65 1   
    50    26    66 1   
    51    26    67 1   
    52    27    68 1   
    53    27    69 1   
    54    27    70 1   
    55    28    29 1   
    56    28    30 1   
    57    28    31 1   
    58    31    32 1   
    59    32    33 1   
    60    32    36 1   
    61    32    71 1   
    62    33    34 1   
    63    33    35 1   
    64    36    37 ar  
    65    36    38 ar  
    66    37    41 ar  
    67    37    72 1   
    68    38    39 ar  
    69    38    73 1   
    70    39    40 ar  
    71    39    74 1   
    72    40    41 ar  
    73    40    75 1   
    74    41    42 1   
    75    42    43 1   
    76    42    76 1   
    77    43    44 2   
    78    43    45 1   
    79    44    77 1   
    80    45    78 1   
    81    45    79 1   
@<TRIPOS>SUBSTRUCTURE
     1 343         1 TEMP              0 ****  ****    0 ROOT
