@<TRIPOS>MOLECULE
343
   79    81     1     0     0
SMALL
No Charge or Current Charge


@<TRIPOS>ATOM
      1 C49         39.0710    17.1910    61.4440 ca         1 343      -0.076500
      2 C50         39.3890    16.9170    60.1020 ca         1 343      -0.111500
      3 C51         38.6790    17.5490    59.0680 ca         1 343      -0.110000
      4 C52         37.6520    18.4560    59.3760 ca         1 343      -0.111500
      5 C53         37.3310    18.7300    60.7180 ca         1 343      -0.076500
      6 C48         38.0390    18.0980    61.7600 ca         1 343      -0.093300
      7 C47         37.6940    18.3830    63.2170 c3         1 343       0.231900
      8 O46         37.3140    17.1470    63.8350 os         1 343      -0.427100
      9 C44         36.9870    17.1610    65.1590 c          1 343       0.639100
     10 O45         36.9770    18.1480    65.8760 o          1 343      -0.598000
     11 N43         36.6570    15.9070    65.6050 ns         1 343      -0.465900
     12 C34         36.6580    14.6790    64.7740 c3         1 343       0.033700
     13 C35         36.8240    13.4150    65.6500 c3         1 343      -0.036100
     14 C36         38.1210    13.4220    66.4540 ca         1 343      -0.100300
     15 C37         39.3550    13.2390    65.7990 ca         1 343      -0.064000
     16 C38         40.5550    13.2490    66.5330 ca         1 343      -0.175500
     17 C41         40.5250    13.4410    67.9230 ca         1 343       0.100100
     18 O42         41.6840    13.4510    68.6390 oh         1 343      -0.564100
     19 C40         39.3000    13.6210    68.5810 ca         1 343      -0.175500
     20 C39         38.0980    13.6110    67.8500 ca         1 343      -0.064000
     21 C32         35.3620    14.6000    63.9210 c          1 343       0.572100
     22 O33         34.2610    14.9480    64.3380 o          1 343      -0.684100
     23 N31         35.5500    14.0910    62.6520 ns         1 343      -0.450900
     24 C27         34.5030    13.8610    61.6130 c3         1 343      -0.230300
     25 C28         34.2640    15.1080    60.6950 c3         1 343      -0.036700
     26 C30         35.5360    15.6240    59.9760 c3         1 343      -0.081600
     27 C29         33.5750    16.2680    61.4510 c3         1 343      -0.081600
     28 P24         34.7550    12.2310    60.7070 p5         1 343       1.418400
     29 O25         33.6930    12.0020    59.6790 o          1 343      -0.834000
     30 O26         34.8350    11.1060    61.6900 o          1 343      -0.834000
     31 O23         36.1860    12.5210    60.0150 os         1 343      -0.606400
     32 C1          37.3010    11.6000    60.1560 c3         1 343       0.131600
     33 C2          38.0000    11.6450    61.5660 c          1 343       0.709000
     34 O14         38.6960    10.6910    61.8920 o          1 343      -0.738000
     35 O13         37.8770    12.6440    62.2660 o          1 343      -0.738000
     36 C3          38.3180    11.9400    59.0680 ca         1 343       0.017700
     37 C8          38.7780    10.9440    58.1830 ca         1 343      -0.129000
     38 C4          38.8020    13.2570    58.9350 ca         1 343      -0.080000
     39 C5          39.7280    13.5750    57.9280 ca         1 343      -0.114000
     40 C6          40.1790    12.5750    57.0500 ca         1 343      -0.187000
     41 C7          39.7130    11.2580    57.1800 ca         1 343       0.264000
     42 N9          40.1680    10.2880    56.2930 nu         1 343      -0.976200
     43 C10         40.6560     9.0920    56.4980 c2         1 343       0.800100
     44 N12         41.0540     8.7340    57.6120 n2         1 343      -0.900100
     45 N11         41.2050     8.7830    55.3610 nv         1 343      -1.046200
     46 H49         39.6230    16.6940    62.2390 ha         1 343       0.119000
     47 H50         40.1860    16.2150    59.8660 ha         1 343       0.107500
     48 H51         38.9240    17.3350    58.0300 ha         1 343       0.098000
     49 H52         37.1010    18.9450    58.5760 ha         1 343       0.107500
     50 H53         36.5300    19.4300    60.9460 ha         1 343       0.119000
     51 H471        38.5710    18.8140    63.7180 h1         1 343       0.041200
     52 H472        36.8740    19.1110    63.2740 h1         1 343       0.041200
     53 HN43        36.3820    15.8410    66.5760 hn         1 343       0.320500
     54 H34         37.5060    14.7220    64.0780 h1         1 343       0.116700
     55 H351        35.9560    13.3230    66.3150 hc         1 343       0.073200
     56 H352        36.8000    12.5300    65.0030 hc         1 343       0.073200
     57 H37         39.3850    13.0870    64.7220 ha         1 343       0.141000
     58 H38         41.5010    13.1070    66.0150 ha         1 343       0.109000
     59 HO42        42.4320    13.3110    68.0190 ho         1 343       0.451000
     60 H40         39.2770    13.7690    69.6580 ha         1 343       0.109000
     61 H39         37.1530    13.7520    68.3710 ha         1 343       0.141000
     62 HN31        36.4930    13.7400    62.4540 hn         1 343       0.382500
     63 H27         33.5620    13.6500    62.1340 h1         1 343       0.066700
     64 H28         33.5590    14.8000    59.9120 hc         1 343       0.048700
     65 H301        35.3160    16.5430    59.4200 hc         1 343       0.023533
     66 H302        36.3350    15.8470    60.6920 hc         1 343       0.023533
     67 H303        35.9120    14.8960    59.2500 hc         1 343       0.023533
     68 H291        34.2510    16.7160    62.1880 hc         1 343       0.023533
     69 H292        33.2720    17.0570    60.7510 hc         1 343       0.023533
     70 H293        32.6750    15.9170    61.9690 hc         1 343       0.023533
     71 H1          36.9540    10.5690    60.0080 h1         1 343       0.055700
     72 H8          38.4000     9.9290    58.2670 ha         1 343       0.136000
     73 H4          38.4520    14.0340    59.6110 ha         1 343       0.130000
     74 H5          40.0920    14.5950    57.8260 ha         1 343       0.085000
     75 H6          40.8950    12.8270    56.2720 ha         1 343       0.078000
     76 HN9         40.6170    10.6610    55.4700 hn         1 343       0.466000
     77 HN12        40.6480     9.4200    58.2550 hn         1 343       0.418400
     78 H111        41.8120     7.9850    55.4820 hn         1 343       0.452500
     79 H112        40.5090     8.6450    54.6420 hn         1 343       0.452500
@<TRIPOS>BOND
     1     1     2 ar  
     2     1     6 ar  
     3     1    46 1   
     4     2     3 ar  
     5     2    47 1   
     6     3     4 ar  
     7     3    48 1   
     8     4     5 ar  
     9     4    49 1   
    10     5     6 ar  
    11     5    50 1   
    12     6     7 1   
    13     7     8 1   
    14     7    51 1   
    15     7    52 1   
    16     8     9 1   
    17     9    10 2   
    18     9    11 1   
    19    11    12 1   
    20    11    53 1   
    21    12    13 1   
    22    12    21 1   
    23    12    54 1   
    24    13    14 1   
    25    13    55 1   
    26    13    56 1   
    27    14    15 ar  
    28    14    20 ar  
    29    15    16 ar  
    30    15    57 1   
    31    16    17 ar  
    32    16    58 1   
    33    17    18 1   
    34    17    19 ar  
    35    18    59 1   
    36    19    20 ar  
    37    19    60 1   
    38    20    61 1   
    39    21    22 2   
    40    21    23 1   
    41    23    24 1   
    42    23    62 1   
    43    24    25 1   
    44    24    28 1   
    45    24    63 1   
    46    25    26 1   
    47    25    27 1   
    48    25    64 1   
    49    26    65 1   
    50    26    66 1   
    51    26    67 1   
    52    27    68 1   
    53    27    69 1   
    54    27    70 1   
    55    28    29 1   
    56    28    30 1   
    57    28    31 1   
    58    31    32 1   
    59    32    33 1   
    60    32    36 1   
    61    32    71 1   
    62    33    34 1   
    63    33    35 1   
    64    36    37 ar  
    65    36    38 ar  
    66    37    41 ar  
    67    37    72 1   
    68    38    39 ar  
    69    38    73 1   
    70    39    40 ar  
    71    39    74 1   
    72    40    41 ar  
    73    40    75 1   
    74    41    42 1   
    75    42    43 1   
    76    42    76 1   
    77    43    44 2   
    78    43    45 1   
    79    44    77 1   
    80    45    78 1   
    81    45    79 1   
@<TRIPOS>SUBSTRUCTURE
     1 343         1 TEMP              0 ****  ****    0 ROOT
