@<TRIPOS>MOLECULE
344
   22    24     1     0     0
SMALL
bcc


@<TRIPOS>ATOM
      1 N4          -3.3000    -1.0460     0.0030 nc         1 344      -0.559100
      2 C9          -4.0040     0.0450     0.0010 cd         1 344       0.417700
      3 N5          -3.2530     1.1790    -0.0060 na         1 344      -0.278300
      4 C1          -1.9430     0.7980    -0.0070 ca         1 344      -0.028200
      5 C2          -0.7630     1.5170    -0.0150 ca         1 344      -0.162000
      6 C3           0.4310     0.7920    -0.0150 ca         1 344       0.242400
      7 N3           1.6110     1.4900    -0.0200 nc         1 344      -0.716100
      8 C8           2.7170     0.8180    -0.0270 cd         1 344       0.724800
      9 N2           3.9050     1.4480    -0.0850 nv         1 344      -0.934800
     10 N1           2.7630    -0.5510    -0.0190 ns         1 344      -0.523400
     11 C7           1.6500    -1.3590    -0.0090 c          1 344       0.737100
     12 O1           1.7640    -2.5730    -0.0020 o          1 344      -0.614500
     13 C4           0.3900    -0.6290    -0.0090 ca         1 344      -0.249600
     14 C5          -0.8110    -1.3350    -0.0030 ca         1 344       0.025000
     15 C6          -1.9890    -0.6160    -0.0030 ca         1 344       0.024400
     16 H9          -5.0820     0.0920     0.0050 h5         1 344       0.062800
     17 HN5         -3.6090     2.1220    -0.0030 hn         1 344       0.308700
     18 H2          -0.7420     2.5990    -0.0190 ha         1 344       0.153000
     19 HN21         3.9030     2.4420     0.0720 hn         1 344       0.439800
     20 HN22         4.7520     0.9650     0.1630 hn         1 344       0.439800
     21 HN1          3.6610    -1.0170    -0.0300 hn         1 344       0.324500
     22 H5          -0.8150    -2.4170     0.0010 ha         1 344       0.168000
@<TRIPOS>BOND
     1     1     2 2   
     2     1    15 1   
     3     2     3 1   
     4     2    16 1   
     5     3     4 1   
     6     3    17 1   
     7     4     5 ar  
     8     4    15 ar  
     9     5     6 ar  
    10     5    18 1   
    11     6     7 1   
    12     6    13 ar  
    13     7     8 2   
    14     8     9 1   
    15     8    10 1   
    16     9    19 1   
    17     9    20 1   
    18    10    11 1   
    19    10    21 1   
    20    11    12 2   
    21    11    13 1   
    22    13    14 ar  
    23    14    15 ar  
    24    14    22 1   
@<TRIPOS>SUBSTRUCTURE
     1 344         1 TEMP              0 ****  ****    0 ROOT
