@<TRIPOS>MOLECULE
344
   22    24     1     0     0
SMALL
No Charge or Current Charge


@<TRIPOS>ATOM
      1 N4          -3.2920    -1.0690     0.0350 nc         1 344      -0.559100
      2 C9          -4.0190     0.0690     0.0280 cd         1 344       0.417700
      3 N5          -3.2360     1.2330    -0.0000 na         1 344      -0.328600
      4 C1          -1.9540     0.7630    -0.0110 ca         1 344      -0.028200
      5 C2          -0.7550     1.4860    -0.0390 ca         1 344      -0.144000
      6 C3           0.4660     0.7810    -0.0460 ca         1 344       0.242400
      7 N3           1.6520     1.5340    -0.0730 nc         1 344      -0.716100
      8 C8           2.7150     0.7700    -0.0750 cd         1 344       0.724800
      9 N2           3.8580     1.4310    -0.0920 nv         1 344      -1.045200
     10 N1           2.7980    -0.5670    -0.0560 ns         1 344      -0.456400
     11 C7           1.7180    -1.3710    -0.0320 c          1 344       0.594600
     12 O1           1.8130    -2.5880    -0.0220 o          1 344      -0.539000
     13 C4           0.4320    -0.6370    -0.0230 ca         1 344      -0.249600
     14 C5          -0.7990    -1.3370     0.0040 ca         1 344       0.043000
     15 C6          -1.9910    -0.5970     0.0100 ca         1 344       0.024400
     16 H9          -5.1010     0.1260     0.0430 h5         1 344       0.062800
     17 HN5         -3.5650     2.1890    -0.0100 hn         1 344       0.359000
     18 H2          -0.7630     2.5720    -0.0560 ha         1 344       0.135000
     19 HN21         3.7460     2.4210     0.0820 hn         1 344       0.495000
     20 HN22         4.6500     1.0000     0.3690 hn         1 344       0.495000
     21 HN1          3.6950    -1.0200    -0.0840 hn         1 344       0.324500
     22 H5          -0.8330    -2.4240     0.0210 ha         1 344       0.150000
@<TRIPOS>BOND
     1     1     2 2   
     2     1    15 1   
     3     2     3 1   
     4     2    16 1   
     5     3     4 1   
     6     3    17 1   
     7     4     5 ar  
     8     4    15 ar  
     9     5     6 ar  
    10     5    18 1   
    11     6     7 1   
    12     6    13 ar  
    13     7     8 2   
    14     8     9 1   
    15     8    10 1   
    16     9    19 1   
    17     9    20 1   
    18    10    11 1   
    19    10    21 1   
    20    11    12 2   
    21    11    13 1   
    22    13    14 ar  
    23    14    15 ar  
    24    14    22 1   
@<TRIPOS>SUBSTRUCTURE
     1 344         1 TEMP              0 ****  ****    0 ROOT
