@<TRIPOS>MOLECULE
345
   48    50     1     0     0
SMALL
abcg2


@<TRIPOS>ATOM
      1 C1          -0.7540    -0.3950    -4.3530 ca         1 345       0.086100
      2 C2           0.5240    -0.4980    -4.8790 ca         1 345      -0.105500
      3 C3           0.8700     0.2610    -5.9870 ca         1 345      -0.093000
      4 C4          -0.0690     1.1150    -6.5450 ca         1 345       0.120000
      5 C5          -1.3480     1.2190    -6.0190 ca         1 345      -0.093000
      6 C6          -1.6920     0.4570    -4.9130 ca         1 345      -0.105500
      7 O11         -1.1040    -1.1800    -3.2800 os         1 345      -0.245200
      8 C12         -1.0480    -0.6610    -2.0330 ca         1 345       0.192100
      9 C13         -1.5390    -1.4700    -1.0100 ca         1 345      -0.187500
     10 C14         -1.5130    -1.0200     0.2950 ca         1 345       0.015000
     11 C15         -0.9900     0.2380     0.5810 ca         1 345      -0.305500
     12 C16         -0.5200     1.0520    -0.4410 ca         1 345       0.015000
     13 C17         -0.5380     0.6040    -1.7500 ca         1 345      -0.187500
     14 S22         -0.9980     0.8360     2.2450 sy         1 345       1.019500
     15 O23         -1.9270     0.0100     3.0180 o          1 345      -0.506500
     16 O24         -1.2220     2.2810     2.1910 o          1 345      -0.506500
     17 C25          0.6810     0.5460     2.9310 c6         1 345      -0.204000
     18 C26          0.6740     1.1750     4.3330 c6         1 345      -0.103900
     19 C27          2.0830     1.2090     4.9050 c6         1 345       0.162100
     20 O28          2.9680     1.9270     4.0750 os         1 345      -0.443000
     21 C29          3.0620     1.3650     2.7890 c6         1 345       0.162100
     22 C30          1.7110     1.3030     2.0830 c6         1 345      -0.103900
     23 C39          0.9730    -0.9600     2.8820 c3         1 345      -0.153400
     24 C40          0.1500    -1.8760     3.7660 c          1 345       0.617100
     25 N43         -0.3600    -2.9220     3.0940 ns         1 345      -0.393400
     26 O44          0.0250    -1.7320     4.9680 o          1 345      -0.557100
     27 O45         -1.1110    -3.8570     3.7320 oh         1 345      -0.400100
     28 CL4          0.3610     2.0670    -7.9260 cl         1 345      -0.187000
     29 H2           1.2470    -1.1680    -4.4330 ha         1 345       0.136000
     30 H3           1.8640     0.1860    -6.4040 ha         1 345       0.137000
     31 H5          -2.0740     1.8860    -6.4630 ha         1 345       0.137000
     32 H6          -2.6890     0.5270    -4.4980 ha         1 345       0.136000
     33 H13         -1.9490    -2.4430    -1.2430 ha         1 345       0.136000
     34 H14         -1.9230    -1.6420     1.0780 ha         1 345       0.141500
     35 H16         -0.1390     2.0430    -0.2360 ha         1 345       0.141500
     36 H17         -0.1650     1.2510    -2.5320 ha         1 345       0.136000
     37 H261         0.3100     2.2020     4.2610 hc         1 345       0.074450
     38 H262         0.0220     0.6380     5.0180 hc         1 345       0.074450
     39 H271         2.0650     1.7170     5.8700 h1         1 345       0.048950
     40 H272         2.4520     0.1900     5.0830 h1         1 345       0.048950
     41 H291         3.7370     1.9950     2.2090 h1         1 345       0.048950
     42 H292         3.5180     0.3660     2.8360 h1         1 345       0.048950
     43 H301         1.8520     0.8320     1.1080 hc         1 345       0.074450
     44 H302         1.3650     2.3250     1.9100 hc         1 345       0.074450
     45 H391         2.0090    -1.1120     3.1930 hc         1 345       0.066700
     46 H392         0.9460    -1.2900     1.8410 hc         1 345       0.066700
     47 HN          -0.2020    -3.0870     2.1110 hn         1 345       0.332500
     48 HO          -0.4960    -4.5140     4.0860 ho         1 345       0.432000
@<TRIPOS>BOND
     1     1     2 ar  
     2     1     6 ar  
     3     1     7 1   
     4     2     3 ar  
     5     2    29 1   
     6     3     4 ar  
     7     3    30 1   
     8     4     5 ar  
     9     4    28 1   
    10     5     6 ar  
    11     5    31 1   
    12     6    32 1   
    13     7     8 1   
    14     8     9 ar  
    15     8    13 ar  
    16     9    10 ar  
    17     9    33 1   
    18    10    11 ar  
    19    10    34 1   
    20    11    12 ar  
    21    11    14 1   
    22    12    13 ar  
    23    12    35 1   
    24    13    36 1   
    25    14    15 2   
    26    14    16 2   
    27    14    17 1   
    28    17    18 1   
    29    17    22 1   
    30    17    23 1   
    31    18    19 1   
    32    18    37 1   
    33    18    38 1   
    34    19    20 1   
    35    19    39 1   
    36    19    40 1   
    37    20    21 1   
    38    21    22 1   
    39    21    41 1   
    40    21    42 1   
    41    22    43 1   
    42    22    44 1   
    43    23    24 1   
    44    23    45 1   
    45    23    46 1   
    46    24    25 1   
    47    24    26 2   
    48    25    27 1   
    49    25    47 1   
    50    27    48 1   
@<TRIPOS>SUBSTRUCTURE
     1 345         1 TEMP              0 ****  ****    0 ROOT
