@<TRIPOS>MOLECULE
345
   48    50     1     0     0
SMALL
No Charge or Current Charge


@<TRIPOS>ATOM
      1 C1          -0.4970    -0.5760    -4.4270 ca         1 345       0.086100
      2 C2           0.3450    -0.9100    -5.5010 ca         1 345      -0.105500
      3 C3           0.3000    -0.1630    -6.6920 ca         1 345      -0.093000
      4 C4          -0.5950     0.9150    -6.8100 ca         1 345       0.120000
      5 C5          -1.4480     1.2440    -5.7430 ca         1 345      -0.093000
      6 C6          -1.4040     0.4970    -4.5510 ca         1 345      -0.105500
      7 O11         -0.4420    -1.3310    -3.2770 os         1 345      -0.245200
      8 C12         -0.5730    -0.7890    -2.0190 ca         1 345       0.192100
      9 C13         -1.2820    -1.5030    -1.0430 ca         1 345      -0.187500
     10 C14         -1.4250    -0.9810     0.2530 ca         1 345       0.015000
     11 C15         -0.8320     0.2550     0.5830 ca         1 345      -0.305500
     12 C16         -0.1330     0.9810    -0.4040 ca         1 345       0.015000
     13 C17          0.0060     0.4520    -1.6980 ca         1 345      -0.187500
     14 S22         -1.0140     0.9380     2.2470 sy         1 345       1.019500
     15 O23         -2.0060     0.1280     2.9650 o          1 345      -0.506500
     16 O24         -1.2060     2.3880     2.1060 o          1 345      -0.506500
     17 C25          0.6480     0.6770     3.0750 c6         1 345      -0.204000
     18 C26          0.5370     1.1980     4.5550 c6         1 345      -0.103900
     19 C27          1.9100     1.2670     5.2690 c6         1 345       0.162100
     20 O28          2.8070     2.1070     4.5130 os         1 345      -0.443000
     21 C29          3.0720     1.6260     3.1790 c6         1 345       0.162100
     22 C30          1.7520     1.5490     2.3660 c6         1 345      -0.103900
     23 C39          1.0860    -0.8520     3.0090 c3         1 345      -0.153400
     24 C40          0.1480    -1.9080     3.6350 c          1 345       0.617100
     25 N43         -0.3260    -2.8680     2.7490 ns         1 345      -0.393400
     26 O44         -0.0930    -1.9550     4.8340 o          1 345      -0.557100
     27 O45         -1.3830    -3.7800     3.1290 oh         1 345      -0.400100
     28 Cl4         -0.6530     1.8480    -8.2990 cl         1 345      -0.187000
     29 H2           1.0350    -1.7460    -5.4080 ha         1 345       0.136000
     30 H3           0.9540    -0.4170    -7.5220 ha         1 345       0.137000
     31 H5          -2.1440     2.0740    -5.8410 ha         1 345       0.137000
     32 H6          -2.0740     0.7490    -3.7320 ha         1 345       0.136000
     33 H13         -1.7330    -2.4590    -1.2970 ha         1 345       0.136000
     34 H14         -2.0060    -1.5370     0.9870 ha         1 345       0.141500
     35 H16          0.3040     1.9520    -0.1760 ha         1 345       0.141500
     36 H17          0.5630     1.0070    -2.4480 ha         1 345       0.136000
     37 H261         0.1070     2.2100     4.5620 hc         1 345       0.074450
     38 H262        -0.1560     0.5860     5.1460 hc         1 345       0.074450
     39 H271         1.7860     1.6950     6.2740 h1         1 345       0.048950
     40 H272         2.3490     0.2650     5.3810 h1         1 345       0.048950
     41 H291         3.7710     2.3170     2.6860 h1         1 345       0.048950
     42 H292         3.5600     0.6430     3.2340 h1         1 345       0.048950
     43 H301         1.9790     1.1530     1.3670 hc         1 345       0.074450
     44 H302         1.3940     2.5760     2.2140 hc         1 345       0.074450
     45 H391         2.0500    -0.9850     3.5090 hc         1 345       0.066700
     46 H392         1.2460    -1.1230     1.9580 hc         1 345       0.066700
     47 HN          -0.1690    -2.7520     1.7490 hn         1 345       0.332500
     48 HO          -1.0170    -4.6670     2.9010 ho         1 345       0.432000
@<TRIPOS>BOND
     1     1     2 ar  
     2     1     6 ar  
     3     1     7 1   
     4     2     3 ar  
     5     2    29 1   
     6     3     4 ar  
     7     3    30 1   
     8     4     5 ar  
     9     4    28 1   
    10     5     6 ar  
    11     5    31 1   
    12     6    32 1   
    13     7     8 1   
    14     8     9 ar  
    15     8    13 ar  
    16     9    10 ar  
    17     9    33 1   
    18    10    11 ar  
    19    10    34 1   
    20    11    12 ar  
    21    11    14 1   
    22    12    13 ar  
    23    12    35 1   
    24    13    36 1   
    25    14    15 2   
    26    14    16 2   
    27    14    17 1   
    28    17    18 1   
    29    17    22 1   
    30    17    23 1   
    31    18    19 1   
    32    18    37 1   
    33    18    38 1   
    34    19    20 1   
    35    19    39 1   
    36    19    40 1   
    37    20    21 1   
    38    21    22 1   
    39    21    41 1   
    40    21    42 1   
    41    22    43 1   
    42    22    44 1   
    43    23    24 1   
    44    23    45 1   
    45    23    46 1   
    46    24    25 1   
    47    24    26 2   
    48    25    27 1   
    49    25    47 1   
    50    27    48 1   
@<TRIPOS>SUBSTRUCTURE
     1 345         1 TEMP              0 ****  ****    0 ROOT
