@<TRIPOS>MOLECULE
346
   53    55     1     0     0
SMALL
No Charge or Current Charge


@<TRIPOS>ATOM
      1 F30          1.5140    -2.1080    -0.7720 f          1 346      -0.170000
      2 C12          1.7730    -0.7780    -0.7380 ca         1 346       0.116000
      3 C13          3.1120    -0.3370    -0.6670 ca         1 346       0.122100
      4 O25          4.1320    -1.2730    -0.6640 os         1 346      -0.325100
      5 C26          4.9570    -1.1180     0.5270 c5         1 346       0.143300
      6 C27          6.0970    -2.1710     0.4280 c5         1 346      -0.114400
      7 C29          6.2430    -2.5790     1.9080 c5         1 346       0.150600
      8 O28          4.8750    -2.7210     2.3200 os         1 346      -0.435000
      9 C31          4.1590    -1.5780     1.7990 c5         1 346       0.120600
     10 C8           3.3990     1.0430    -0.6650 ca         1 346      -0.285000
     11 C9           2.3450     1.9780    -0.6930 ca         1 346       0.151100
     12 O23          2.5640     3.3390    -0.6900 os         1 346      -0.347100
     13 C24          3.8840     3.9050    -0.6430 c3         1 346       0.169600
     14 C30          3.7360     5.4340    -0.6420 c3         1 346      -0.093100
     15 C10          1.0160     1.5310    -0.7350 ca         1 346      -0.148000
     16 C11          0.7110     0.1530    -0.7590 ca         1 346       0.001700
     17 C14         -0.7500    -0.3100    -0.8170 c3         1 346       0.093800
     18 C15         -1.3500    -0.0550    -2.2580 c          1 346       0.710000
     19 O2          -1.6300     1.0900    -2.5950 o          1 346      -0.702000
     20 O1          -1.5080    -1.0210    -2.9950 o          1 346      -0.702000
     21 N3          -1.5420     0.2790     0.3200 nu         1 346      -0.913200
     22 C1          -2.9030     0.0930     0.5590 ca         1 346       0.386000
     23 C2          -3.6110     1.0750     1.2630 ca         1 346      -0.204500
     24 C3          -4.9820     0.9140     1.5260 ca         1 346      -0.031000
     25 C4          -5.6730    -0.2340     1.0760 ca         1 346      -0.249900
     26 C7          -7.1230    -0.4110     1.3890 ce         1 346       0.685800
     27 N1          -7.8420    -1.2210     0.5910 nv         1 346      -1.075200
     28 N2          -7.7320     0.2500     2.2830 n2         1 346      -0.860100
     29 C5          -4.9420    -1.2330     0.3900 ca         1 346      -0.031000
     30 C6          -3.5700    -1.0640     0.1320 ca         1 346      -0.204500
     31 H26          5.3530    -0.1000     0.6270 h1         1 346       0.056700
     32 H272         7.0220    -1.7520     0.0170 hc         1 346       0.064700
     33 H271         5.8150    -3.0320    -0.1880 hc         1 346       0.064700
     34 H292         6.7260    -1.7960     2.5100 h1         1 346       0.041200
     35 H291         6.7820    -3.5270     2.0450 h1         1 346       0.041200
     36 H312         3.1240    -1.8720     1.5830 h1         1 346       0.053200
     37 H311         4.1460    -0.7870     2.5600 h1         1 346       0.053200
     38 H8           4.4320     1.3730    -0.6640 ha         1 346       0.103000
     39 H241         4.4720     3.5950    -1.5170 h1         1 346       0.024700
     40 H242         4.4110     3.5890     0.2670 h1         1 346       0.024700
     41 H303         3.1620     5.7670     0.2310 hc         1 346       0.042033
     42 H302         3.2230     5.7730    -1.5500 hc         1 346       0.042033
     43 H301         4.7230     5.9100    -0.6070 hc         1 346       0.042033
     44 H10          0.2160     2.2650    -0.7670 ha         1 346       0.156000
     45 H14         -0.7660    -1.4010    -0.6950 h1         1 346       0.074700
     46 H33         -1.1610     1.1290     0.7360 hn         1 346       0.467000
     47 H2          -3.1020     1.9690     1.6090 ha         1 346       0.116500
     48 H3          -5.5070     1.6930     2.0750 ha         1 346       0.105000
     49 H12         -8.8280    -1.0030     0.5230 hn         1 346       0.449500
     50 H11         -7.3920    -1.4710    -0.2810 hn         1 346       0.449500
     51 H21         -8.6600    -0.1680     2.4080 hn         1 346       0.346400
     52 H5          -5.4240    -2.1510     0.0630 ha         1 346       0.105000
     53 H6          -3.0310    -1.8450    -0.3930 ha         1 346       0.116500
@<TRIPOS>BOND
     1     1     2 1   
     2     2     3 ar  
     3     2    16 ar  
     4     3     4 1   
     5     3    10 ar  
     6     4     5 1   
     7     5     6 1   
     8     5     9 1   
     9     5    31 1   
    10     6     7 1   
    11     6    32 1   
    12     6    33 1   
    13     7     8 1   
    14     7    34 1   
    15     7    35 1   
    16     8     9 1   
    17     9    36 1   
    18     9    37 1   
    19    10    11 ar  
    20    10    38 1   
    21    11    12 1   
    22    11    15 ar  
    23    12    13 1   
    24    13    14 1   
    25    13    39 1   
    26    13    40 1   
    27    14    41 1   
    28    14    42 1   
    29    14    43 1   
    30    15    16 ar  
    31    15    44 1   
    32    16    17 1   
    33    17    18 1   
    34    17    21 1   
    35    17    45 1   
    36    18    19 1   
    37    18    20 1   
    38    21    22 1   
    39    21    46 1   
    40    22    23 ar  
    41    22    30 ar  
    42    23    24 ar  
    43    23    47 1   
    44    24    25 ar  
    45    24    48 1   
    46    25    26 1   
    47    25    29 ar  
    48    26    27 1   
    49    26    28 2   
    50    27    49 1   
    51    27    50 1   
    52    28    51 1   
    53    29    30 ar  
    54    29    52 1   
    55    30    53 1   
@<TRIPOS>SUBSTRUCTURE
     1 346         1 TEMP              0 ****  ****    0 ROOT
