@<TRIPOS>MOLECULE
346
   53    55     1     0     0
SMALL
bcc


@<TRIPOS>ATOM
      1 F30          1.2500    -2.0570    -0.1490 f          1 346      -0.134900
      2 C12          1.5460    -0.7500    -0.2810 ca         1 346       0.080900
      3 C13          2.8840    -0.3800    -0.1530 ca         1 346       0.122100
      4 O25          3.7470    -1.3850     0.0650 os         1 346      -0.301900
      5 C26          5.1260    -1.1000     0.2750 c5         1 346       0.120100
      6 C27          5.8710    -2.4340     0.3090 c5         1 346      -0.114400
      7 C29          6.0750    -2.7150     1.8090 c5         1 346       0.127400
      8 O28          5.3730    -1.6990     2.5030 os         1 346      -0.388600
      9 C31          5.3830    -0.5600     1.6760 c5         1 346       0.097400
     10 C8           3.2250     0.9650    -0.2660 ca         1 346      -0.303000
     11 C9           2.2280     1.9110    -0.5090 ca         1 346       0.151100
     12 O23          2.4690     3.2300    -0.6290 os         1 346      -0.323900
     13 C24          3.8020     3.7080    -0.5160 c3         1 346       0.146400
     14 C30          3.7750     5.2100    -0.6720 c3         1 346      -0.093100
     15 C10          0.9040     1.5140    -0.6440 ca         1 346      -0.166000
     16 C11          0.5500     0.1720    -0.5250 ca         1 346       0.001700
     17 C14         -0.8950    -0.2370    -0.6700 c3         1 346       0.093800
     18 C15         -1.3500     0.1390    -2.1150 c          1 346       0.920600
     19 O2          -1.9970     1.1880    -2.2470 o          1 346      -0.807300
     20 O1          -0.9770    -0.6560    -2.9960 o          1 346      -0.807300
     21 N3          -1.6660     0.3740     0.3850 nu         1 346      -0.719600
     22 C1          -3.0030     0.1450     0.5210 ca         1 346       0.247600
     23 C2          -3.7670     0.9530     1.3830 ca         1 346      -0.222500
     24 C3          -5.1060     0.7080     1.5890 ca         1 346      -0.049000
     25 C4          -5.7640    -0.3450     0.9450 ca         1 346      -0.249900
     26 C7          -7.2040    -0.5820     1.1960 ce         1 346       0.685800
     27 N1          -7.8480    -1.3490     0.2610 nv         1 346      -0.964800
     28 N2          -7.7390    -0.1120     2.2600 n2         1 346      -0.860100
     29 C5          -5.0060    -1.1460     0.0920 ca         1 346      -0.049000
     30 C6          -3.6590    -0.9140    -0.1240 ca         1 346      -0.222500
     31 H26          5.5030    -0.4420    -0.5130 h1         1 346       0.056700
     32 H272         6.8250    -2.3450    -0.2100 hc         1 346       0.064700
     33 H271         5.3000    -3.2120    -0.1950 hc         1 346       0.064700
     34 H292         7.1410    -2.6870     2.0600 h1         1 346       0.041200
     35 H291         5.6800    -3.6830     2.1200 h1         1 346       0.041200
     36 H312         4.6310     0.1450     2.0360 h1         1 346       0.053200
     37 H311         6.3570    -0.0510     1.6880 h1         1 346       0.053200
     38 H8           4.2550     1.2740    -0.1630 ha         1 346       0.121000
     39 H241         4.4330     3.2560    -1.2890 h1         1 346       0.024700
     40 H242         4.2220     3.4340     0.4580 h1         1 346       0.024700
     41 H303         3.1670     5.6790     0.1020 hc         1 346       0.042033
     42 H302         3.3860     5.5030    -1.6470 hc         1 346       0.042033
     43 H301         4.7890     5.5990    -0.5840 hc         1 346       0.042033
     44 H10          0.1450     2.2560    -0.8620 ha         1 346       0.174000
     45 H14         -0.9690    -1.3220    -0.5680 h1         1 346       0.074700
     46 H33         -1.3510     1.2770     0.7020 hn         1 346       0.411800
     47 H2          -3.2920     1.7840     1.8920 ha         1 346       0.134500
     48 H3          -5.6660     1.3490     2.2570 ha         1 346       0.123000
     49 H12         -8.8520    -1.3970     0.3270 hn         1 346       0.394300
     50 H11         -7.5190    -1.3100    -0.6900 hn         1 346       0.394300
     51 H21         -8.7350    -0.3120     2.2870 hn         1 346       0.346400
     52 H5          -5.4580    -1.9900    -0.4150 ha         1 346       0.123000
     53 H6          -3.1240    -1.5720    -0.7950 ha         1 346       0.134500
@<TRIPOS>BOND
     1     1     2 1   
     2     2     3 ar  
     3     2    16 ar  
     4     3     4 1   
     5     3    10 ar  
     6     4     5 1   
     7     5     6 1   
     8     5     9 1   
     9     5    31 1   
    10     6     7 1   
    11     6    32 1   
    12     6    33 1   
    13     7     8 1   
    14     7    34 1   
    15     7    35 1   
    16     8     9 1   
    17     9    36 1   
    18     9    37 1   
    19    10    11 ar  
    20    10    38 1   
    21    11    12 1   
    22    11    15 ar  
    23    12    13 1   
    24    13    14 1   
    25    13    39 1   
    26    13    40 1   
    27    14    41 1   
    28    14    42 1   
    29    14    43 1   
    30    15    16 ar  
    31    15    44 1   
    32    16    17 1   
    33    17    18 1   
    34    17    21 1   
    35    17    45 1   
    36    18    19 1   
    37    18    20 1   
    38    21    22 1   
    39    21    46 1   
    40    22    23 ar  
    41    22    30 ar  
    42    23    24 ar  
    43    23    47 1   
    44    24    25 ar  
    45    24    48 1   
    46    25    26 1   
    47    25    29 ar  
    48    26    27 1   
    49    26    28 2   
    50    27    49 1   
    51    27    50 1   
    52    28    51 1   
    53    29    30 ar  
    54    29    52 1   
    55    30    53 1   
@<TRIPOS>SUBSTRUCTURE
     1 346         1 TEMP              0 ****  ****    0 ROOT
