@<TRIPOS>MOLECULE
347
   63    64     1     0     0
SMALL
bcc


@<TRIPOS>ATOM
      1 C1          10.6340    -2.9240    -1.3890 c3         1 347      -0.015000
      2 C2           9.3310    -2.5740    -0.8460 c1         1 347      -0.085100
      3 C3           8.2540    -2.2890    -0.3920 c1         1 347      -0.192100
      4 C4           6.9540    -1.9390     0.1650 c3         1 347       0.322900
      5 N1           6.3850    -0.8100    -0.5350 nu         1 347      -0.770600
      6 C5           5.2020    -0.2520    -0.2010 ca         1 347       0.261600
      7 C6           4.7580     0.9070    -0.8700 ca         1 347      -0.242500
      8 C7           3.5530     1.4890    -0.5540 ca         1 347       0.024000
      9 C8           2.7530     0.9340     0.4450 ca         1 347      -0.358500
     10 C9           3.1730    -0.2080     1.1190 ca         1 347       0.024000
     11 C10          4.3800    -0.7990     0.8030 ca         1 347      -0.242500
     12 S1           1.2220     1.6760     0.8650 sy         1 347       1.098300
     13 O1           0.9570     1.4290     2.2820 o          1 347      -0.595800
     14 O2           1.2320     3.0620     0.3880 o          1 347      -0.595800
     15 C11          0.0310     0.7550    -0.1270 c3         1 347      -0.192600
     16 C12         -1.4500     1.1390     0.0520 c6         1 347      -0.090000
     17 C13         -2.0010     0.6190     1.3870 c6         1 347      -0.086400
     18 C14         -3.5190     0.7100     1.4840 c6         1 347       0.108000
     19 N2          -4.1600     0.0680     0.3540 n          1 347      -0.480800
     20 C15         -3.7300     0.5790    -0.9330 c6         1 347       0.108000
     21 C16         -2.2230     0.4360    -1.0830 c6         1 347      -0.086400
     22 C17         -5.0550    -0.9290     0.5450 c          1 347       0.776100
     23 O3          -5.3890    -1.3310     1.6440 o          1 347      -0.601000
     24 O4          -5.5190    -1.4040    -0.6090 os         1 347      -0.455900
     25 C18         -6.5260    -2.4470    -0.6820 c3         1 347       0.201800
     26 C19         -6.0180    -3.7510    -0.0770 c3         1 347      -0.107767
     27 C20         -7.8340    -1.9920    -0.0450 c3         1 347      -0.107767
     28 C21         -6.7230    -2.6240    -2.1840 c3         1 347      -0.107767
     29 C22         -1.5990     2.6680    -0.0150 c          1 347       0.648100
     30 O5          -1.8870     3.3490     0.9480 o          1 347      -0.542100
     31 N3          -1.3780     3.1970    -1.2370 ns         1 347      -0.424400
     32 O6          -1.2800     4.5480    -1.3720 oh         1 347      -0.379100
     33 H11         11.0210    -3.8230    -0.9090 hc         1 347       0.059033
     34 H12         10.5750    -3.1160    -2.4610 hc         1 347       0.059033
     35 H13         11.3550    -2.1230    -1.2290 hc         1 347       0.059033
     36 H41          6.2870    -2.8050     0.0940 h1         1 347       0.061200
     37 H42          7.0660    -1.7240     1.2350 h1         1 347       0.061200
     38 HN1          6.9740    -0.3210    -1.1880 hn         1 347       0.446800
     39 H6           5.3800     1.3480    -1.6400 ha         1 347       0.137000
     40 H7           3.2420     2.3810    -1.0800 ha         1 347       0.149500
     41 H9           2.5640    -0.6450     1.8990 ha         1 347       0.149500
     42 H10          4.6820    -1.6850     1.3430 ha         1 347       0.137000
     43 H111         0.3600     0.8840    -1.1610 h1         1 347       0.092700
     44 H112         0.1680    -0.2980     0.1270 h1         1 347       0.092700
     45 H131        -1.7070    -0.4300     1.4840 hc         1 347       0.060450
     46 H132        -1.5610     1.1490     2.2280 hc         1 347       0.060450
     47 H141        -3.8490     0.2350     2.4040 h1         1 347       0.068950
     48 H142        -3.8380     1.7540     1.5320 h1         1 347       0.068950
     49 H151        -4.2240     0.0530    -1.7420 h1         1 347       0.068950
     50 H152        -4.0210     1.6330    -1.0170 h1         1 347       0.068950
     51 H161        -1.9260     0.8030    -2.0670 hc         1 347       0.060450
     52 H162        -1.9660    -0.6270    -1.0640 hc         1 347       0.060450
     53 H191        -5.9040    -3.6950     1.0020 hc         1 347       0.048700
     54 H192        -6.7320    -4.5460    -0.2970 hc         1 347       0.048700
     55 H193        -5.0620    -4.0370    -0.5180 hc         1 347       0.048700
     56 H201        -8.1610    -1.0390    -0.4660 hc         1 347       0.048700
     57 H202        -8.6090    -2.7290    -0.2580 hc         1 347       0.048700
     58 H203        -7.7600    -1.8900     1.0350 hc         1 347       0.048700
     59 H211        -5.7980    -2.9340    -2.6720 hc         1 347       0.048700
     60 H212        -7.4740    -3.3920    -2.3700 hc         1 347       0.048700
     61 H213        -7.0660    -1.7000    -2.6520 hc         1 347       0.048700
     62 HN3         -0.9400     2.6740    -1.9810 hn         1 347       0.319500
     63 HO6         -0.4230     4.8010    -0.9950 ho         1 347       0.409000
@<TRIPOS>BOND
     1     1     2 1   
     2     1    33 1   
     3     1    34 1   
     4     1    35 1   
     5     2     3 3   
     6     3     4 1   
     7     4     5 1   
     8     4    36 1   
     9     4    37 1   
    10     5     6 1   
    11     5    38 1   
    12     6     7 ar  
    13     6    11 ar  
    14     7     8 ar  
    15     7    39 1   
    16     8     9 ar  
    17     8    40 1   
    18     9    10 ar  
    19     9    12 1   
    20    10    11 ar  
    21    10    41 1   
    22    11    42 1   
    23    12    13 2   
    24    12    14 2   
    25    12    15 1   
    26    15    16 1   
    27    15    43 1   
    28    15    44 1   
    29    16    17 1   
    30    16    21 1   
    31    16    29 1   
    32    17    18 1   
    33    17    45 1   
    34    17    46 1   
    35    18    19 1   
    36    18    47 1   
    37    18    48 1   
    38    19    20 1   
    39    19    22 1   
    40    20    21 1   
    41    20    49 1   
    42    20    50 1   
    43    21    51 1   
    44    21    52 1   
    45    22    23 2   
    46    22    24 1   
    47    24    25 1   
    48    25    26 1   
    49    25    27 1   
    50    25    28 1   
    51    26    53 1   
    52    26    54 1   
    53    26    55 1   
    54    27    56 1   
    55    27    57 1   
    56    27    58 1   
    57    28    59 1   
    58    28    60 1   
    59    28    61 1   
    60    29    30 2   
    61    29    31 1   
    62    31    32 1   
    63    31    62 1   
    64    32    63 1   
@<TRIPOS>SUBSTRUCTURE
     1 347         1 TEMP              0 ****  ****    0 ROOT
