@<TRIPOS>MOLECULE
347
   63    64     1     0     0
SMALL
No Charge or Current Charge


@<TRIPOS>ATOM
      1 C1          11.0150    -2.7130    -1.4950 c3         1 347      -0.015000
      2 C2           9.7310    -2.4330    -0.8430 c1         1 347      -0.085100
      3 C3           8.6700    -2.1790    -0.3220 c1         1 347      -0.192100
      4 C4           7.3850    -1.9030     0.3240 c3         1 347       0.322900
      5 N1           6.7930    -0.7160    -0.2970 nu         1 347      -0.964200
      6 C5           5.5630    -0.1310    -0.0130 ca         1 347       0.400000
      7 C6           5.1140     0.9200    -0.8210 ca         1 347      -0.224500
      8 C7           3.8780     1.5360    -0.5670 ca         1 347       0.042000
      9 C8           3.0880     1.0960     0.5120 ca         1 347      -0.358500
     10 C9           3.5360     0.0370     1.3260 ca         1 347       0.042000
     11 C10          4.7730    -0.5710     1.0600 ca         1 347      -0.224500
     12 S1           1.4960     1.8710     0.8380 sy         1 347       1.067500
     13 O1           1.1490     1.6240     2.2430 o          1 347      -0.525000
     14 O2           1.5360     3.2290     0.2810 o          1 347      -0.525000
     15 C11          0.3730     0.8850    -0.2060 c3         1 347      -0.303400
     16 C12         -1.2010     0.8960     0.0060 c6         1 347      -0.090000
     17 C13         -1.6120     0.1780     1.3230 c6         1 347      -0.086400
     18 C14         -3.1400     0.0240     1.4890 c6         1 347       0.108000
     19 N2          -3.8350    -0.6280     0.3470 n          1 347      -0.413800
     20 C15         -3.2920    -0.3800    -1.0220 c6         1 347       0.108000
     21 C16         -1.7770    -0.0350    -1.1180 c6         1 347      -0.086400
     22 C17         -5.1450    -1.1160     0.5290 c          1 347       0.660100
     23 O3          -5.6830    -1.1770     1.6240 o          1 347      -0.552000
     24 O4          -5.7130    -1.4970    -0.6650 os         1 347      -0.479100
     25 C18         -7.0540    -2.0280    -0.7630 c3         1 347       0.225000
     26 C19         -7.1510    -3.3560     0.0310 c3         1 347      -0.107767
     27 C20         -8.0750    -0.9600    -0.2930 c3         1 347      -0.107767
     28 C21         -7.2400    -2.3040    -2.2720 c3         1 347      -0.107767
     29 C22         -1.7880     2.3610    -0.0180 c          1 347       0.581100
     30 O5          -1.3720     3.2470     0.7130 o          1 347      -0.542100
     31 N3          -2.7390     2.6730    -0.9820 ns         1 347      -0.357400
     32 O6          -3.1260     4.0460    -1.2030 oh         1 347      -0.418100
     33 H11         11.4800    -3.6020    -1.0540 hc         1 347       0.059033
     34 H12         10.8670    -2.8920    -2.5670 hc         1 347       0.059033
     35 H13         11.6980    -1.8640    -1.3730 hc         1 347       0.059033
     36 H41          6.7260    -2.7750     0.2030 h1         1 347       0.061200
     37 H42          7.5480    -1.7400     1.3990 h1         1 347       0.061200
     38 HN1          7.2970    -0.3290    -1.0950 hn         1 347       0.502000
     39 H6           5.7200     1.2640    -1.6540 ha         1 347       0.119000
     40 H7           3.5430     2.3500    -1.2090 ha         1 347       0.131500
     41 H9           2.9320    -0.3190     2.1600 ha         1 347       0.131500
     42 H10          5.1080    -1.3840     1.6960 ha         1 347       0.119000
     43 H111         0.5980     1.1970    -1.2320 h1         1 347       0.092700
     44 H112         0.7270    -0.1460    -0.0950 h1         1 347       0.092700
     45 H131        -1.1480    -0.8170     1.3710 hc         1 347       0.060450
     46 H132        -1.2340     0.7280     2.1930 hc         1 347       0.060450
     47 H141        -3.3270    -0.5550     2.4050 h1         1 347       0.068950
     48 H142        -3.5890     1.0150     1.6480 h1         1 347       0.068950
     49 H151        -3.4640    -1.2730    -1.6410 h1         1 347       0.068950
     50 H152        -3.8890     0.4200    -1.4810 h1         1 347       0.068950
     51 H161        -1.5600     0.3800    -2.1120 hc         1 347       0.060450
     52 H162        -1.2340    -0.9910    -1.0910 hc         1 347       0.060450
     53 H191        -7.1610    -3.1880     1.1130 hc         1 347       0.048700
     54 H192        -8.0770    -3.8860    -0.2220 hc         1 347       0.048700
     55 H193        -6.3080    -4.0160    -0.2090 hc         1 347       0.048700
     56 H201        -7.8620     0.0120    -0.7530 hc         1 347       0.048700
     57 H202        -9.0930    -1.2530    -0.5780 hc         1 347       0.048700
     58 H203        -8.0680    -0.8370     0.7950 hc         1 347       0.048700
     59 H211        -6.4960    -3.0250    -2.6310 hc         1 347       0.048700
     60 H212        -8.2370    -2.7150    -2.4740 hc         1 347       0.048700
     61 H213        -7.1300    -1.3810    -2.8530 hc         1 347       0.048700
     62 HN3         -2.9130     2.0320    -1.7510 hn         1 347       0.319500
     63 HO6         -2.4280     4.5450    -0.7130 ho         1 347       0.448000
@<TRIPOS>BOND
     1     1     2 1   
     2     1    33 1   
     3     1    34 1   
     4     1    35 1   
     5     2     3 3   
     6     3     4 1   
     7     4     5 1   
     8     4    36 1   
     9     4    37 1   
    10     5     6 1   
    11     5    38 1   
    12     6     7 ar  
    13     6    11 ar  
    14     7     8 ar  
    15     7    39 1   
    16     8     9 ar  
    17     8    40 1   
    18     9    10 ar  
    19     9    12 1   
    20    10    11 ar  
    21    10    41 1   
    22    11    42 1   
    23    12    13 2   
    24    12    14 2   
    25    12    15 1   
    26    15    16 1   
    27    15    43 1   
    28    15    44 1   
    29    16    17 1   
    30    16    21 1   
    31    16    29 1   
    32    17    18 1   
    33    17    45 1   
    34    17    46 1   
    35    18    19 1   
    36    18    47 1   
    37    18    48 1   
    38    19    20 1   
    39    19    22 1   
    40    20    21 1   
    41    20    49 1   
    42    20    50 1   
    43    21    51 1   
    44    21    52 1   
    45    22    23 2   
    46    22    24 1   
    47    24    25 1   
    48    25    26 1   
    49    25    27 1   
    50    25    28 1   
    51    26    53 1   
    52    26    54 1   
    53    26    55 1   
    54    27    56 1   
    55    27    57 1   
    56    27    58 1   
    57    28    59 1   
    58    28    60 1   
    59    28    61 1   
    60    29    30 2   
    61    29    31 1   
    62    31    32 1   
    63    31    62 1   
    64    32    63 1   
@<TRIPOS>SUBSTRUCTURE
     1 347         1 TEMP              0 ****  ****    0 ROOT
