@<TRIPOS>MOLECULE
348
   67    71     1     0     0
SMALL
No Charge or Current Charge


@<TRIPOS>ATOM
      1 N1          -6.0850     3.3650     1.0620 nv         1 348      -1.077200
      2 C3          -4.9400     3.8880     1.5520 ce         1 348       0.661800
      3 N2          -5.0260     4.8520     2.3730 n2         1 348      -0.828100
      4 C4          -3.6370     3.3780     1.0100 ca         1 348      -0.143900
      5 C9          -2.4600     4.1510     1.1310 ca         1 348      -0.078500
      6 C8          -1.2290     3.6710     0.6540 ca         1 348      -0.098500
      7 C7          -1.1270     2.4000     0.0570 ca         1 348      -0.053300
      8 C6          -2.2970     1.6170    -0.0490 ca         1 348      -0.098500
      9 C5          -3.5310     2.0930     0.4270 ca         1 348      -0.078500
     10 C10          0.2390     1.9220    -0.4620 c5         1 348       0.253800
     11 N11          0.2280     0.6510    -1.2360 n3         1 348      -0.743600
     12 C12         -0.2110     0.9170    -2.6440 c5         1 348       0.173800
     13 C13          1.0360     0.5970    -3.5190 c5         1 348      -0.091400
     14 C14          2.1940     0.9310    -2.5520 c5         1 348      -0.097400
     15 C15          1.6480     0.2130    -1.2890 c5         1 348       0.176500
     16 C16          2.3270     0.8440    -0.0130 c5         1 348      -0.093700
     17 C17          2.7520    -0.3310     0.9360 c5         1 348       0.120700
     18 N19          1.4580    -0.6520     1.5810 n          1 348      -0.414800
     19 C20          0.5210     0.3870     1.5880 c          1 348       0.575000
     20 O21         -0.5240     0.3770     2.2270 o          1 348      -0.531000
     21 C22          1.1340     1.5120     0.7400 c5         1 348      -0.154700
     22 C23          1.0510    -2.0180     1.9670 c3         1 348       0.159300
     23 C24          0.8980    -2.9240     0.7530 ca         1 348      -0.158300
     24 C32          1.8060    -3.9750     0.5260 ca         1 348      -0.058500
     25 C31          1.6760    -4.7840    -0.6160 ca         1 348      -0.176000
     26 C30          0.6460    -4.5500    -1.5420 ca         1 348       0.142100
     27 O29          0.5740    -5.3720    -2.6480 os         1 348      -0.343100
     28 C28         -0.4330    -5.2050    -3.6620 c3         1 348       0.148900
     29 C26         -0.2640    -3.4960    -1.3160 ca         1 348      -0.176000
     30 C25         -0.1370    -2.6890    -0.1730 ca         1 348      -0.058500
     31 C18          3.8620     0.0670     1.9660 c3         1 348      -0.070700
     32 C41          4.0640    -0.9710     3.0970 c3         1 348      -0.087600
     33 C42          5.2250     0.3510     1.2840 c3         1 348      -0.087600
     34 H1N1        -5.9760     2.8320     0.2070 hn         1 348       0.458500
     35 H1N2        -6.9010     3.9650     1.0920 hn         1 348       0.458500
     36 H2N         -5.9860     4.8750     2.7340 hn         1 348       0.367400
     37 H9          -2.4980     5.1370     1.5900 ha         1 348       0.123000
     38 H8          -0.3430     4.2950     0.7500 ha         1 348       0.117500
     39 H6          -2.2530     0.6240    -0.4880 ha         1 348       0.117500
     40 H5          -4.4010     1.4450     0.3490 ha         1 348       0.123000
     41 H10          0.7170     2.7380    -1.0230 h1         1 348       0.030700
     42 H121        -0.5270     1.9610    -2.7890 h1         1 348       0.040200
     43 H122        -1.0620     0.2820    -2.9260 h1         1 348       0.040200
     44 H131         1.0650     1.1910    -4.4390 hc         1 348       0.052200
     45 H132         1.0520    -0.4600    -3.8090 hc         1 348       0.052200
     46 H141         2.3190     2.0130    -2.4290 hc         1 348       0.049200
     47 H142         3.1540     0.5200    -2.8840 hc         1 348       0.049200
     48 H15          1.7450    -0.8810    -1.3650 h1         1 348       0.079700
     49 H16          3.1320     1.5440    -0.2580 hc         1 348       0.070700
     50 H17          3.1250    -1.1900     0.3610 h1         1 348       0.065700
     51 H22          1.4120     2.3520     1.3830 hc         1 348       0.088700
     52 H231         0.1010    -1.9940     2.5160 h1         1 348       0.066200
     53 H232         1.7990    -2.4430     2.6460 h1         1 348       0.066200
     54 H32          2.6160    -4.1620     1.2280 ha         1 348       0.120500
     55 H31          2.3810    -5.5930    -0.7880 ha         1 348       0.122000
     56 H281        -0.3580    -4.2130    -4.1250 h1         1 348       0.040367
     57 H282        -0.3070    -5.9580    -4.4500 h1         1 348       0.040367
     58 H283        -1.4380    -5.3220    -3.2370 h1         1 348       0.040367
     59 H26         -1.0680    -3.2830    -2.0140 ha         1 348       0.122000
     60 H25         -0.8330    -1.8680    -0.0140 ha         1 348       0.120500
     61 H18          3.5530     0.9990     2.4550 hc         1 348       0.050700
     62 H411         4.2690    -1.9660     2.6830 hc         1 348       0.035533
     63 H412         4.9060    -0.6880     3.7400 hc         1 348       0.035533
     64 H413         3.1770    -1.0310     3.7370 hc         1 348       0.035533
     65 H421         5.9830     0.6210     2.0280 hc         1 348       0.035533
     66 H422         5.5790    -0.5340     0.7420 hc         1 348       0.035533
     67 H423         5.1590     1.1820     0.5740 hc         1 348       0.035533
@<TRIPOS>BOND
     1     1     2 1   
     2     1    34 1   
     3     1    35 1   
     4     2     3 2   
     5     2     4 1   
     6     3    36 1   
     7     4     5 ar  
     8     4     9 ar  
     9     5     6 ar  
    10     5    37 1   
    11     6     7 ar  
    12     6    38 1   
    13     7     8 ar  
    14     7    10 1   
    15     8     9 ar  
    16     8    39 1   
    17     9    40 1   
    18    10    11 1   
    19    10    21 1   
    20    10    41 1   
    21    11    12 1   
    22    11    15 1   
    23    12    13 1   
    24    12    42 1   
    25    12    43 1   
    26    13    14 1   
    27    13    44 1   
    28    13    45 1   
    29    14    15 1   
    30    14    46 1   
    31    14    47 1   
    32    15    16 1   
    33    15    48 1   
    34    16    17 1   
    35    16    21 1   
    36    16    49 1   
    37    17    18 1   
    38    17    31 1   
    39    17    50 1   
    40    18    19 1   
    41    18    22 1   
    42    19    20 2   
    43    19    21 1   
    44    21    51 1   
    45    22    23 1   
    46    22    52 1   
    47    22    53 1   
    48    23    24 ar  
    49    23    30 ar  
    50    24    25 ar  
    51    24    54 1   
    52    25    26 ar  
    53    25    55 1   
    54    26    27 1   
    55    26    29 ar  
    56    27    28 1   
    57    28    56 1   
    58    28    57 1   
    59    28    58 1   
    60    29    30 ar  
    61    29    59 1   
    62    30    60 1   
    63    31    32 1   
    64    31    33 1   
    65    31    61 1   
    66    32    62 1   
    67    32    63 1   
    68    32    64 1   
    69    33    65 1   
    70    33    66 1   
    71    33    67 1   
@<TRIPOS>SUBSTRUCTURE
     1 348         1 TEMP              0 ****  ****    0 ROOT
