@<TRIPOS>MOLECULE
348
   67    71     1     0     0
SMALL
bcc


@<TRIPOS>ATOM
      1 N1          -6.0990     2.8370     0.6270 nv         1 348      -0.966800
      2 C3          -5.0800     3.3890     1.3500 ce         1 348       0.661800
      3 N2          -5.2110     4.1260     2.3870 n2         1 348      -0.828100
      4 C4          -3.7100     3.0310     0.8950 ca         1 348      -0.143900
      5 C9          -2.6390     3.8670     1.2080 ca         1 348      -0.096500
      6 C8          -1.3570     3.5500     0.7980 ca         1 348      -0.116500
      7 C7          -1.0980     2.3800     0.0890 ca         1 348      -0.053300
      8 C6          -2.1630     1.5460    -0.2230 ca         1 348      -0.116500
      9 C5          -3.4530     1.8680     0.1710 ca         1 348      -0.096500
     10 C10          0.3140     2.0590    -0.3330 c5         1 348       0.253800
     11 N11          0.3980     1.0510    -1.3620 n3         1 348      -0.743600
     12 C12          0.1990     1.5080    -2.7310 c5         1 348       0.173800
     13 C13          1.2050     0.7020    -3.5520 c5         1 348      -0.091400
     14 C14          2.3820     0.5760    -2.5900 c5         1 348      -0.097400
     15 C15          1.6730     0.3250    -1.2640 c5         1 348       0.176500
     16 C16          2.3610     0.8260     0.0130 c5         1 348      -0.093700
     17 C17          2.7960    -0.3070     0.9460 c5         1 348       0.120700
     18 N19          1.5560    -0.6010     1.6520 n          1 348      -0.481800
     19 C20          0.6520     0.4060     1.6160 c          1 348       0.717500
     20 O21         -0.4340     0.4020     2.1680 o          1 348      -0.606500
     21 C22          1.2330     1.5280     0.7730 c5         1 348      -0.154700
     22 C23          1.1980    -1.9440     2.0680 c3         1 348       0.159300
     23 C24          0.8930    -2.8160     0.8770 ca         1 348      -0.158300
     24 C32          1.7660    -3.8250     0.4820 ca         1 348      -0.076500
     25 C31          1.5210    -4.5910    -0.6460 ca         1 348      -0.194000
     26 C30          0.3810    -4.3560    -1.4140 ca         1 348       0.142100
     27 O29          0.2170    -5.1370    -2.5000 os         1 348      -0.319900
     28 C28         -0.9120    -4.9170    -3.3220 c3         1 348       0.125700
     29 C26         -0.5060    -3.3510    -1.0290 ca         1 348      -0.194000
     30 C25         -0.2410    -2.5960     0.1040 ca         1 348      -0.076500
     31 C18          3.9570     0.1030     1.8670 c3         1 348      -0.070700
     32 C41          4.1340    -0.8240     3.0640 c3         1 348      -0.087600
     33 C42          5.2530     0.1650     1.0630 c3         1 348      -0.087600
     34 H1N1        -5.9380     2.6270    -0.3450 hn         1 348       0.403300
     35 H1N2        -7.0320     3.1660     0.8170 hn         1 348       0.403300
     36 H2N         -6.1910     4.3190     2.5790 hn         1 348       0.367400
     37 H9          -2.8220     4.7760     1.7650 ha         1 348       0.141000
     38 H8          -0.5420     4.2260     1.0350 ha         1 348       0.135500
     39 H6          -1.9750     0.6320    -0.7690 ha         1 348       0.135500
     40 H5          -4.2580     1.1860    -0.0740 ha         1 348       0.141000
     41 H10          0.7640     3.0100    -0.6720 h1         1 348       0.030700
     42 H121         0.4180     2.5820    -2.8250 h1         1 348       0.040200
     43 H122        -0.8300     1.3600    -3.0680 h1         1 348       0.040200
     44 H131         1.4590     1.1900    -4.4930 hc         1 348       0.052200
     45 H132         0.8000    -0.2850    -3.7890 hc         1 348       0.052200
     46 H141         2.9440     1.5140    -2.5580 hc         1 348       0.049200
     47 H142         3.0800    -0.2200    -2.8530 hc         1 348       0.049200
     48 H15          1.4680    -0.7500    -1.1730 h1         1 348       0.079700
     49 H16          3.1790     1.5080    -0.2210 hc         1 348       0.070700
     50 H17          3.1000    -1.1910     0.3730 h1         1 348       0.065700
     51 H22          1.5680     2.3430     1.4200 hc         1 348       0.088700
     52 H231         0.3360    -1.8700     2.7300 h1         1 348       0.066200
     53 H232         2.0070    -2.3820     2.6520 h1         1 348       0.066200
     54 H32          2.6610    -4.0170     1.0630 ha         1 348       0.138500
     55 H31          2.2140    -5.3690    -0.9390 ha         1 348       0.140000
     56 H281        -0.9250    -3.9060    -3.7380 h1         1 348       0.040367
     57 H282        -0.8430    -5.6300    -4.1390 h1         1 348       0.040367
     58 H283        -1.8490    -5.0880    -2.7850 h1         1 348       0.040367
     59 H26         -1.4030    -3.1440    -1.5960 ha         1 348       0.140000
     60 H25         -0.9440    -1.8180     0.3800 ha         1 348       0.138500
     61 H18          3.7380     1.1070     2.2510 hc         1 348       0.050700
     62 H411         4.3360    -1.8510     2.7490 hc         1 348       0.035533
     63 H412         4.9810    -0.4980     3.6690 hc         1 348       0.035533
     64 H413         3.2570    -0.8310     3.7100 hc         1 348       0.035533
     65 H421         6.0780     0.5130     1.6850 hc         1 348       0.035533
     66 H422         5.5200    -0.8250     0.6840 hc         1 348       0.035533
     67 H423         5.1870     0.8390     0.2080 hc         1 348       0.035533
@<TRIPOS>BOND
     1     1     2 1   
     2     1    34 1   
     3     1    35 1   
     4     2     3 2   
     5     2     4 1   
     6     3    36 1   
     7     4     5 ar  
     8     4     9 ar  
     9     5     6 ar  
    10     5    37 1   
    11     6     7 ar  
    12     6    38 1   
    13     7     8 ar  
    14     7    10 1   
    15     8     9 ar  
    16     8    39 1   
    17     9    40 1   
    18    10    11 1   
    19    10    21 1   
    20    10    41 1   
    21    11    12 1   
    22    11    15 1   
    23    12    13 1   
    24    12    42 1   
    25    12    43 1   
    26    13    14 1   
    27    13    44 1   
    28    13    45 1   
    29    14    15 1   
    30    14    46 1   
    31    14    47 1   
    32    15    16 1   
    33    15    48 1   
    34    16    17 1   
    35    16    21 1   
    36    16    49 1   
    37    17    18 1   
    38    17    31 1   
    39    17    50 1   
    40    18    19 1   
    41    18    22 1   
    42    19    20 2   
    43    19    21 1   
    44    21    51 1   
    45    22    23 1   
    46    22    52 1   
    47    22    53 1   
    48    23    24 ar  
    49    23    30 ar  
    50    24    25 ar  
    51    24    54 1   
    52    25    26 ar  
    53    25    55 1   
    54    26    27 1   
    55    26    29 ar  
    56    27    28 1   
    57    28    56 1   
    58    28    57 1   
    59    28    58 1   
    60    29    30 ar  
    61    29    59 1   
    62    30    60 1   
    63    31    32 1   
    64    31    33 1   
    65    31    61 1   
    66    32    62 1   
    67    32    63 1   
    68    32    64 1   
    69    33    65 1   
    70    33    66 1   
    71    33    67 1   
@<TRIPOS>SUBSTRUCTURE
     1 348         1 TEMP              0 ****  ****    0 ROOT
