@<TRIPOS>MOLECULE
34A
   20    20     1     0     0
SMALL
abcg2


@<TRIPOS>ATOM
      1 N1          -0.3780     0.2460    -2.9340 nv         1 34A      -1.066000
      2 C1          -0.0570     0.1110    -1.5940 ca         1 34A       0.281000
      3 C2           1.2710     0.0190    -1.1740 ca         1 34A      -0.176000
      4 C3           1.5700    -0.0570     0.1780 ca         1 34A      -0.069000
      5 C4           0.5830    -0.0460     1.1580 ca         1 34A      -0.118300
      6 C5          -0.7540     0.0420     0.7420 ca         1 34A      -0.037300
      7 C6          -1.0540     0.1190    -0.6130 ca         1 34A      -0.171000
      8 C7           0.9380    -0.1260     2.6150 c3         1 34A      -0.036800
      9 C8          -1.8620     0.0510     1.7550 c3         1 34A      -0.048800
     10 HN11         0.3100    -0.1160    -3.5750 hn         1 34A       0.441000
     11 HN12        -1.3040    -0.0630    -3.1850 hn         1 34A       0.441000
     12 H2           2.0700     0.0070    -1.9060 ha         1 34A       0.111000
     13 H3           2.6100    -0.1290     0.4770 ha         1 34A       0.107000
     14 H6          -2.0930     0.1890    -0.9190 ha         1 34A       0.109000
     15 H71          0.6020     0.7560     3.1660 hc         1 34A       0.037033
     16 H72          0.4810    -0.9900     3.1030 hc         1 34A       0.037033
     17 H73          2.0160    -0.2050     2.7510 hc         1 34A       0.037033
     18 H81         -1.8560    -0.8580     2.3620 hc         1 34A       0.040700
     19 H82         -1.7640     0.8890     2.4470 hc         1 34A       0.040700
     20 H83         -2.8390     0.1250     1.2790 hc         1 34A       0.040700
@<TRIPOS>BOND
     1     1     2 1   
     2     1    10 1   
     3     1    11 1   
     4     2     3 ar  
     5     2     7 ar  
     6     3     4 ar  
     7     3    12 1   
     8     4     5 ar  
     9     4    13 1   
    10     5     6 ar  
    11     5     8 1   
    12     6     7 ar  
    13     6     9 1   
    14     7    14 1   
    15     8    15 1   
    16     8    16 1   
    17     8    17 1   
    18     9    18 1   
    19     9    19 1   
    20     9    20 1   
@<TRIPOS>SUBSTRUCTURE
     1 34A         1 TEMP              0 ****  ****    0 ROOT
