@<TRIPOS>MOLECULE
34A
   20    20     1     0     0
SMALL
No Charge or Current Charge


@<TRIPOS>ATOM
      1 N1          -0.3710     0.1320    -2.9180 nv         1 34A      -1.066000
      2 C1          -0.0580     0.0740    -1.5870 ca         1 34A       0.281000
      3 C2           1.2800    -0.0070    -1.1850 ca         1 34A      -0.176000
      4 C3           1.6030    -0.0680     0.1810 ca         1 34A      -0.069000
      5 C4           0.5860    -0.0500     1.1560 ca         1 34A      -0.118300
      6 C5          -0.7680     0.0320     0.7500 ca         1 34A      -0.037300
      7 C6          -1.0760     0.0930    -0.6240 ca         1 34A      -0.171000
      8 C7           0.9660    -0.1180     2.6330 c3         1 34A      -0.036800
      9 C8          -1.9010     0.0550     1.7730 c3         1 34A      -0.048800
     10 HN11         0.3550    -0.0170    -3.6170 hn         1 34A       0.441000
     11 HN12        -1.3410     0.0560    -3.2180 hn         1 34A       0.441000
     12 H2           2.0750    -0.0220    -1.9260 ha         1 34A       0.111000
     13 H3           2.6470    -0.1310     0.4790 ha         1 34A       0.107000
     14 H6          -2.1130     0.1560    -0.9430 ha         1 34A       0.109000
     15 H71          0.6170     0.7700     3.1730 hc         1 34A       0.037033
     16 H72          0.5270    -1.0000     3.1140 hc         1 34A       0.037033
     17 H73          2.0520    -0.1770     2.7720 hc         1 34A       0.037033
     18 H81         -1.8980    -0.8540     2.3850 hc         1 34A       0.040700
     19 H82         -1.8080     0.9170     2.4440 hc         1 34A       0.040700
     20 H83         -2.8830     0.1210     1.2910 hc         1 34A       0.040700
@<TRIPOS>BOND
     1     1     2 1   
     2     1    10 1   
     3     1    11 1   
     4     2     3 ar  
     5     2     7 ar  
     6     3     4 ar  
     7     3    12 1   
     8     4     5 ar  
     9     4    13 1   
    10     5     6 ar  
    11     5     8 1   
    12     6     7 ar  
    13     6     9 1   
    14     7    14 1   
    15     8    15 1   
    16     8    16 1   
    17     8    17 1   
    18     9    18 1   
    19     9    19 1   
    20     9    20 1   
@<TRIPOS>SUBSTRUCTURE
     1 34A         1 TEMP              0 ****  ****    0 ROOT
