@<TRIPOS>MOLECULE
34C
   27    27     1     0     0
SMALL
No Charge or Current Charge


@<TRIPOS>ATOM
      1 Cl1         -2.5390    -0.4480     0.9470 cl         1 34C      -0.233000
      2 C1          -1.0180     0.0450     0.1960 ca         1 34C       0.087000
      3 C2          -0.9960     0.3060    -1.1840 ca         1 34C      -0.048000
      4 C3           0.1970     0.7010    -1.8180 ca         1 34C      -0.016300
      5 C4           1.3720     0.8300    -1.0520 ca         1 34C      -0.094000
      6 C5           1.3580     0.5710     0.3300 ca         1 34C      -0.197000
      7 C6           0.1590     0.1750     0.9650 ca         1 34C       0.107100
      8 C7           0.2160     0.9840    -3.3180 c3         1 34C      -0.188100
      9 C8           0.4190    -0.3290    -4.0880 c          1 34C       0.723000
     10 C9           1.2520     0.0200     3.1770 c3         1 34C       0.168600
     11 C10          0.8090    -0.3470     4.6060 c3         1 34C      -0.081400
     12 C11          1.9570    -0.2700     5.6310 c3         1 34C      -0.088100
     13 O1           0.1020    -0.0890     2.3220 os         1 34C      -0.344100
     14 O2          -0.5690    -0.9960    -4.3560 o          1 34C      -0.725000
     15 O3           1.5640    -0.7070    -4.2890 o          1 34C      -0.725000
     16 HC21        -1.9100     0.1990    -1.7640 ha         1 34C       0.136000
     17 HC41         2.3020     1.1320    -1.5300 ha         1 34C       0.104000
     18 HC51         2.2830     0.6820     0.8860 ha         1 34C       0.097000
     19 HC71        -0.7570     1.4230    -3.5720 hc         1 34C       0.032700
     20 HC72         1.0520     1.6670    -3.5110 hc         1 34C       0.032700
     21 HC91         1.6470     1.0450     3.1670 h1         1 34C       0.028200
     22 HC92         2.0440    -0.6670     2.8510 h1         1 34C       0.028200
     23 H101         0.3970    -1.3630     4.6060 hc         1 34C       0.052700
     24 H102         0.0040     0.3290     4.9180 hc         1 34C       0.052700
     25 H111         1.5960    -0.5380     6.6310 hc         1 34C       0.029033
     26 H112         2.7650    -0.9600     5.3610 hc         1 34C       0.029033
     27 H113         2.3690     0.7460     5.6760 hc         1 34C       0.029033
@<TRIPOS>BOND
     1     1     2 1   
     2     2     3 ar  
     3     2     7 ar  
     4     3     4 ar  
     5     3    16 1   
     6     4     5 ar  
     7     4     8 1   
     8     5     6 ar  
     9     5    17 1   
    10     6     7 ar  
    11     6    18 1   
    12     7    13 1   
    13     8     9 1   
    14     8    19 1   
    15     8    20 1   
    16     9    14 1   
    17     9    15 1   
    18    10    11 1   
    19    10    13 1   
    20    10    21 1   
    21    10    22 1   
    22    11    12 1   
    23    11    23 1   
    24    11    24 1   
    25    12    25 1   
    26    12    26 1   
    27    12    27 1   
@<TRIPOS>SUBSTRUCTURE
     1 34C         1 TEMP              0 ****  ****    0 ROOT
