@<TRIPOS>MOLECULE
34C
   27    27     1     0     0
SMALL
abcg2


@<TRIPOS>ATOM
      1 CL1         -2.4440    -0.3530     0.9130 cl         1 34C      -0.233000
      2 C1          -0.9310     0.0920     0.1920 ca         1 34C       0.087000
      3 C2          -0.8620     0.3200    -1.1670 ca         1 34C      -0.048000
      4 C3           0.3440     0.6760    -1.7720 ca         1 34C      -0.016300
      5 C4           1.4590     0.7940    -0.9560 ca         1 34C      -0.094000
      6 C5           1.3970     0.5630     0.4150 ca         1 34C      -0.197000
      7 C6           0.1960     0.2010     1.0140 ca         1 34C       0.107100
      8 C7           0.4130     0.9050    -3.2480 c3         1 34C      -0.188100
      9 C8           0.2490    -0.3670    -4.1190 c          1 34C       0.723000
     10 C9           1.1470     0.0440     3.1870 c3         1 34C       0.168600
     11 C10          0.7080    -0.3610     4.5780 c3         1 34C      -0.081400
     12 C11          1.8640    -0.2740     5.5660 c3         1 34C      -0.088100
     13 O1           0.0260    -0.0540     2.3200 os         1 34C      -0.344100
     14 O2          -0.0430    -1.4320    -3.5480 o          1 34C      -0.725000
     15 O3           0.4220    -0.1920    -5.3420 o          1 34C      -0.725000
     16 HC21        -1.7600     0.2280    -1.7650 ha         1 34C       0.136000
     17 HC41         2.4110     1.0750    -1.3880 ha         1 34C       0.104000
     18 HC51         2.2970     0.6710     1.0060 ha         1 34C       0.097000
     19 HC71        -0.3660     1.6120    -3.5540 hc         1 34C       0.032700
     20 HC72         1.3600     1.3850    -3.5070 hc         1 34C       0.032700
     21 HC91         1.5340     1.0700     3.1910 h1         1 34C       0.028200
     22 HC92         1.9550    -0.6120     2.8410 h1         1 34C       0.028200
     23 H101         0.3190    -1.3820     4.5520 hc         1 34C       0.052700
     24 H102        -0.1090     0.2850     4.9070 hc         1 34C       0.052700
     25 H111         1.5460    -0.5760     6.5630 hc         1 34C       0.029033
     26 H112         2.6910    -0.9220     5.2720 hc         1 34C       0.029033
     27 H113         2.2510     0.7440     5.6380 hc         1 34C       0.029033
@<TRIPOS>BOND
     1     1     2 1   
     2     2     3 ar  
     3     2     7 ar  
     4     3     4 ar  
     5     3    16 1   
     6     4     5 ar  
     7     4     8 1   
     8     5     6 ar  
     9     5    17 1   
    10     6     7 ar  
    11     6    18 1   
    12     7    13 1   
    13     8     9 1   
    14     8    19 1   
    15     8    20 1   
    16     9    14 1   
    17     9    15 1   
    18    10    11 1   
    19    10    13 1   
    20    10    21 1   
    21    10    22 1   
    22    11    12 1   
    23    11    23 1   
    24    11    24 1   
    25    12    25 1   
    26    12    26 1   
    27    12    27 1   
@<TRIPOS>SUBSTRUCTURE
     1 34C         1 TEMP              0 ****  ****    0 ROOT
