@<TRIPOS>MOLECULE
34D
   16    16     1     0     0
SMALL
No Charge or Current Charge


@<TRIPOS>ATOM
      1 C2           0.0010     1.1540     0.1050 ca         1 34D      -0.159500
      2 C3          -1.4000     1.1030     0.1880 ca         1 34D       0.109100
      3 O3          -2.1280     2.2520     0.2490 oh         1 34D      -0.559100
      4 C4          -2.0630    -0.1300     0.2110 ca         1 34D      -0.245000
      5 C5          -1.3220    -1.3170     0.1490 ca         1 34D       0.109100
      6 C1           0.7660    -0.0370     0.0410 ca         1 34D      -0.079600
      7 C6           0.0780    -1.2750     0.0650 ca         1 34D      -0.159500
      8 C            2.2890     0.0110    -0.0500 c          1 34D       0.714600
      9 O1           2.9090    -1.0430    -0.1030 o          1 34D      -0.715000
     10 O2           2.8420     1.1040    -0.0680 o          1 34D      -0.715000
     11 O5          -1.9640    -2.5160     0.1710 oh         1 34D      -0.559100
     12 H2           0.5020     2.1190     0.0880 ha         1 34D       0.134000
     13 H3          -1.5100     3.0140     0.2220 ho         1 34D       0.445500
     14 H4          -3.1470    -0.1590     0.2760 ha         1 34D       0.102000
     15 H6           0.6310    -2.2100     0.0180 ha         1 34D       0.134000
     16 H5          -2.9280    -2.3460     0.2320 ho         1 34D       0.445500
@<TRIPOS>BOND
     1     1     2 ar  
     2     1     6 ar  
     3     1    12 1   
     4     2     3 1   
     5     2     4 ar  
     6     3    13 1   
     7     4     5 ar  
     8     4    14 1   
     9     5     7 ar  
    10     5    11 1   
    11     6     7 ar  
    12     6     8 1   
    13     7    15 1   
    14     8     9 1   
    15     8    10 1   
    16    11    16 1   
@<TRIPOS>SUBSTRUCTURE
     1 34D         1 TEMP              0 ****  ****    0 ROOT
