@<TRIPOS>MOLECULE
34D
   16    16     1     0     0
SMALL
abcg2


@<TRIPOS>ATOM
      1 C2           0.0200     1.1510     0.0690 ca         1 34D      -0.159500
      2 C3          -1.3740     1.1110     0.1220 ca         1 34D       0.109100
      3 O3          -2.1220     2.2390     0.1460 oh         1 34D      -0.559100
      4 C4          -2.0560    -0.1000     0.1230 ca         1 34D      -0.245000
      5 C5          -1.3240    -1.2780     0.0800 ca         1 34D       0.109100
      6 C1           0.7410    -0.0320    -0.0050 ca         1 34D      -0.079600
      7 C6           0.0620    -1.2440    -0.0020 ca         1 34D      -0.159500
      8 C            2.2690    -0.0090    -0.0640 c          1 34D       0.714600
      9 O1           2.8330    -1.1210    -0.0290 o          1 34D      -0.715000
     10 O2           2.8010     1.1030     0.0670 o          1 34D      -0.715000
     11 O5          -1.9370    -2.4990     0.1100 oh         1 34D      -0.559100
     12 H2           0.5190     2.1140     0.0660 ha         1 34D       0.134000
     13 H3          -1.5690     2.9820     0.4090 ho         1 34D       0.445500
     14 H4          -3.1390    -0.0960     0.1640 ha         1 34D       0.102000
     15 H6           0.5820    -2.1910    -0.0780 ha         1 34D       0.134000
     16 H5          -2.7510    -2.4070     0.6170 ho         1 34D       0.445500
@<TRIPOS>BOND
     1     1     2 ar  
     2     1     6 ar  
     3     1    12 1   
     4     2     3 1   
     5     2     4 ar  
     6     3    13 1   
     7     4     5 ar  
     8     4    14 1   
     9     5     7 ar  
    10     5    11 1   
    11     6     7 ar  
    12     6     8 1   
    13     7    15 1   
    14     8     9 1   
    15     8    10 1   
    16    11    16 1   
@<TRIPOS>SUBSTRUCTURE
     1 34D         1 TEMP              0 ****  ****    0 ROOT
