@<TRIPOS>MOLECULE
34F
   29    29     1     0     0
SMALL
abcg2


@<TRIPOS>ATOM
      1 C1          40.4080    10.2160    24.8720 c          1 34F       0.606900
      2 N1          41.5470    10.0810    25.5690 n          1 34F      -0.280300
      3 O1          39.3340     9.6920    25.1430 o          1 34F      -0.643100
      4 CL1         44.5240    12.2210    20.0600 cl         1 34F      -0.259000
      5 C2          42.8470    10.6200    25.1990 c3         1 34F       0.106000
      6 O2          41.5270     9.3120    26.7280 oh         1 34F      -0.456100
      7 CL2         41.7350    11.5540    18.6270 cl         1 34F      -0.274000
      8 C3          43.8530     9.5400    24.8030 c3         1 34F      -0.056400
      9 C4          43.3900     8.6240    23.6630 c3         1 34F      -0.313400
     10 C6          42.9830     9.3700    22.4290 ca         1 34F       0.069700
     11 C7          43.8070    10.3470    21.8680 ca         1 34F      -0.104000
     12 C8          43.4390    11.0170    20.7090 ca         1 34F       0.135000
     13 C9          42.2300    10.7270    20.0810 ca         1 34F       0.066000
     14 C10         41.3970     9.7600    20.6290 ca         1 34F      -0.103000
     15 C11         41.7710     9.0970    21.7880 ca         1 34F      -0.125000
     16 PA1         44.6900     7.3000    23.2900 p5         1 34F       1.259500
     17 OP1         44.1210     6.4960    22.1200 o          1 34F      -0.905500
     18 OP2         44.7850     6.5020    24.5950 o          1 34F      -0.905500
     19 OP3         45.9720     8.0620    22.9420 o          1 34F      -0.905500
     20 H1          40.5560    10.8690    24.0010 h5         1 34F       0.019200
     21 H2          42.6630    11.3050    24.3700 h1         1 34F       0.030700
     22 H2A         43.2250    11.2060    26.0400 h1         1 34F       0.030700
     23 HO2         41.5750     8.3840    26.4420 ho         1 34F       0.460000
     24 H3          44.7830    10.0440    24.5320 hc         1 34F       0.067200
     25 H3A         44.0850     8.9220    25.6710 hc         1 34F       0.067200
     26 H4          42.5200     8.0570    24.0060 hc         1 34F       0.042700
     27 H7          44.7590    10.5780    22.3230 ha         1 34F       0.155000
     28 H10         40.4550     9.5370    20.1470 ha         1 34F       0.098000
     29 H11         41.1070     8.3510    22.2060 ha         1 34F       0.119000
@<TRIPOS>BOND
     1     1     2 1   
     2     1     3 2   
     3     1    20 1   
     4     2     5 1   
     5     2     6 1   
     6     4    12 1   
     7     5     8 1   
     8     5    21 1   
     9     5    22 1   
    10     6    23 1   
    11     7    13 1   
    12     8     9 1   
    13     8    24 1   
    14     8    25 1   
    15     9    10 1   
    16     9    16 1   
    17     9    26 1   
    18    10    11 ar  
    19    10    15 ar  
    20    11    12 ar  
    21    11    27 1   
    22    12    13 ar  
    23    13    14 ar  
    24    14    15 ar  
    25    14    28 1   
    26    15    29 1   
    27    16    17 1   
    28    16    18 1   
    29    16    19 1   
@<TRIPOS>SUBSTRUCTURE
     1 34F         1 TEMP              0 ****  ****    0 ROOT
