@<TRIPOS>MOLECULE
34F
   29    29     1     0     0
SMALL
No Charge or Current Charge


@<TRIPOS>ATOM
      1 C1          40.3540    10.1100    24.8040 c          1 34F       0.606900
      2 N1          41.5050    10.0700    25.6290 n          1 34F      -0.280300
      3 O1          39.2620     9.6710    25.1590 o          1 34F      -0.643100
      4 Cl1         44.5580    12.2940    20.0280 cl         1 34F      -0.259000
      5 C2          42.8120    10.6040    25.1950 c3         1 34F       0.106000
      6 O2          41.4400     9.5450    26.9750 oh         1 34F      -0.456100
      7 Cl2         41.6930    11.6860    18.6370 cl         1 34F      -0.274000
      8 C3          43.8430     9.5150    24.8090 c3         1 34F      -0.056400
      9 C4          43.4170     8.5920    23.6280 c3         1 34F      -0.313400
     10 C6          43.0150     9.3620    22.3720 ca         1 34F       0.069700
     11 C7          43.8580    10.3490    21.8200 ca         1 34F      -0.104000
     12 C8          43.4680    11.0670    20.6780 ca         1 34F       0.135000
     13 C9          42.2220    10.8030    20.0710 ca         1 34F       0.066000
     14 C10         41.3790     9.8180    20.6130 ca         1 34F      -0.103000
     15 C11         41.7750     9.1020    21.7550 ca         1 34F      -0.125000
     16 PA1         44.6860     7.2940    23.2700 p5         1 34F       1.259500
     17 OP1         44.2060     6.4490    22.1390 o          1 34F      -0.905500
     18 OP2         44.8630     6.4550    24.4900 o          1 34F      -0.905500
     19 OP3         45.9720     7.9560    22.9120 o          1 34F      -0.905500
     20 H1          40.5430    10.5730    23.8160 h5         1 34F       0.019200
     21 H2          42.6590    11.2790    24.3430 h1         1 34F       0.030700
     22 H2A         43.2270    11.2070    26.0130 h1         1 34F       0.030700
     23 HO2         41.5810     8.5750    26.8790 ho         1 34F       0.460000
     24 H3          44.7910    10.0090    24.5680 hc         1 34F       0.067200
     25 H3A         44.0430     8.8980    25.6940 hc         1 34F       0.067200
     26 H4          42.5620     7.9990    23.9720 hc         1 34F       0.042700
     27 H7          44.8230    10.5590    22.2730 ha         1 34F       0.155000
     28 H10         40.4190     9.6100    20.1470 ha         1 34F       0.098000
     29 H11         41.1130     8.3410    22.1630 ha         1 34F       0.119000
@<TRIPOS>BOND
     1     1     2 1   
     2     1     3 2   
     3     1    20 1   
     4     2     5 1   
     5     2     6 1   
     6     4    12 1   
     7     5     8 1   
     8     5    21 1   
     9     5    22 1   
    10     6    23 1   
    11     7    13 1   
    12     8     9 1   
    13     8    24 1   
    14     8    25 1   
    15     9    10 1   
    16     9    16 1   
    17     9    26 1   
    18    10    11 ar  
    19    10    15 ar  
    20    11    12 ar  
    21    11    27 1   
    22    12    13 ar  
    23    13    14 ar  
    24    14    15 ar  
    25    14    28 1   
    26    15    29 1   
    27    16    17 1   
    28    16    18 1   
    29    16    19 1   
@<TRIPOS>SUBSTRUCTURE
     1 34F         1 TEMP              0 ****  ****    0 ROOT
