@<TRIPOS>MOLECULE
34G
   75    79     1     0     0
SMALL
No Charge or Current Charge


@<TRIPOS>ATOM
      1 CAA          0.3710     5.8020     0.0340 c3         1 34G      -0.090100
      2 CAJ          0.6730     4.3860     0.5710 c3         1 34G      -0.071400
      3 CBE         -0.3500     3.2720     0.1610 c6         1 34G      -0.091700
      4 CAQ         -1.7980     3.6580     0.5970 c6         1 34G       0.169800
      5 NBI         -2.8240     2.6530     0.2090 n3         1 34G      -0.716600
      6 CAN         -3.0890     2.6180    -1.2530 c6         1 34G       0.173800
      7 CAM         -4.3330     1.7550    -1.5630 c6         1 34G      -0.026100
      8 CAX         -4.3950     0.4470    -0.7660 ca         1 34G      -0.057300
      9 CAG         -5.3270    -0.5410    -1.1330 ca         1 34G      -0.172000
     10 CAZ         -5.4260    -1.7430    -0.3980 ca         1 34G       0.114100
     11 OAT         -6.3330    -2.7350    -0.7390 os         1 34G      -0.321100
     12 CAC         -7.2270    -2.6130    -1.8590 c3         1 34G       0.145900
     13 CBB         -4.5850    -1.9500     0.7210 ca         1 34G       0.109100
     14 OAV         -4.7000    -3.1370     1.4270 os         1 34G      -0.321100
     15 CAE         -3.8830    -3.4380     2.5720 c3         1 34G       0.145900
     16 CAI         -3.6550    -0.9520     1.0890 ca         1 34G      -0.168000
     17 CBD         -3.5560     0.2440     0.3520 ca         1 34G      -0.070300
     18 CBH         -2.5150     1.3030     0.7570 c6         1 34G       0.232800
     19 CAP         -1.0890     0.8320     0.3540 c6         1 34G      -0.108400
     20 CBF          0.0170     1.8590     0.7390 c6         1 34G      -0.057700
     21 CAO          1.4370     1.3560     0.2840 c3         1 34G      -0.067400
     22 CBG          1.8880    -0.0650     0.7640 c6         1 34G       0.229800
     23 NAR          1.7760    -0.1120     2.2420 n7         1 34G      -0.867400
     24 CAK          2.3230    -1.3510     2.8190 c6         1 34G       0.163800
     25 CAL          3.8440    -1.4110     2.5850 c6         1 34G      -0.026100
     26 CAW          4.2250    -1.1030     1.1350 ca         1 34G      -0.058300
     27 CAF          5.5060    -1.4650     0.6780 ca         1 34G      -0.173000
     28 CBC          3.3090    -0.4590     0.2660 ca         1 34G      -0.074300
     29 CAH          3.6880    -0.2420    -1.0780 ca         1 34G      -0.167000
     30 CBA          4.9720    -0.6080    -1.5420 ca         1 34G       0.109100
     31 OAU          5.3650    -0.3910    -2.8540 os         1 34G      -0.322100
     32 CAD          4.5080     0.2300    -3.8280 c3         1 34G       0.145900
     33 CAY          5.8900    -1.2170    -0.6570 ca         1 34G       0.115100
     34 OAS          7.1440    -1.5650    -1.1340 os         1 34G      -0.320100
     35 CAB          8.1400    -2.1890    -0.3050 c3         1 34G       0.145900
     36 H1           1.2100     6.4750     0.2500 hc         1 34G       0.031700
     37 H2           0.2210     5.7830    -1.0520 hc         1 34G       0.031700
     38 H3          -0.5230     6.2260     0.5050 hc         1 34G       0.031700
     39 H4           1.6720     4.1300     0.2020 hc         1 34G       0.042700
     40 H5           0.7530     4.4370     1.6640 hc         1 34G       0.042700
     41 H6          -0.3160     3.2220    -0.9360 hc         1 34G       0.046700
     42 H7          -1.8090     3.7900     1.6900 h1         1 34G       0.053200
     43 H8          -2.0680     4.6330     0.1650 h1         1 34G       0.053200
     44 H10         -3.2600     3.6330    -1.6400 h1         1 34G       0.032700
     45 H11         -2.2270     2.2100    -1.7990 h1         1 34G       0.032700
     46 H12         -5.2330     2.3420    -1.3380 hc         1 34G       0.052700
     47 H13         -4.3670     1.5440    -2.6410 hc         1 34G       0.052700
     48 H14         -5.9670    -0.3550    -1.9910 ha         1 34G       0.117000
     49 H15         -7.8520    -3.5110    -1.9450 h1         1 34G       0.039033
     50 H16         -7.8900    -1.7480    -1.7360 h1         1 34G       0.039033
     51 H17         -6.6660    -2.4990    -2.7950 h1         1 34G       0.039033
     52 H18         -2.8190    -3.4470     2.3000 h1         1 34G       0.038033
     53 H19         -4.0380    -2.6980     3.3670 h1         1 34G       0.038033
     54 H20         -4.1400    -4.4260     2.9720 h1         1 34G       0.038033
     55 H21         -2.9980    -1.0900     1.9430 ha         1 34G       0.115000
     56 H22         -2.5350     1.3680     1.8560 h1         1 34G       0.063700
     57 H23         -0.8950    -0.1270     0.8500 hc         1 34G       0.045700
     58 H24         -1.0500     0.6260    -0.7230 hc         1 34G       0.045700
     59 H25          0.0440     1.9420     1.8350 hc         1 34G       0.050700
     60 H26          1.4590     1.3990    -0.8090 hc         1 34G       0.051200
     61 H27          2.2040     2.0590     0.6240 hc         1 34G       0.051200
     62 H28          1.1920    -0.8050     0.3430 h1         1 34G       0.025700
     63 H29          0.7840    -0.0360     2.4870 hn         1 34G       0.412000
     64 H31          2.1150    -1.3840     3.8990 h1         1 34G       0.030700
     65 H32          1.8370    -2.2220     2.3540 h1         1 34G       0.030700
     66 H33          4.3400    -0.6870     3.2450 hc         1 34G       0.053700
     67 H34          4.2170    -2.4020     2.8750 hc         1 34G       0.053700
     68 H35          6.1870    -1.9440     1.3750 ha         1 34G       0.117000
     69 H36          2.9750     0.2010    -1.7630 ha         1 34G       0.117000
     70 H37          5.0240     0.3070    -4.7930 h1         1 34G       0.038033
     71 H38          3.5950    -0.3600    -3.9780 h1         1 34G       0.038033
     72 H39          4.2270     1.2430    -3.5120 h1         1 34G       0.038033
     73 H40          7.7810    -3.1530     0.0770 h1         1 34G       0.038367
     74 H41          9.0540    -2.3720    -0.8840 h1         1 34G       0.038367
     75 H42          8.4000    -1.5460     0.5450 h1         1 34G       0.038367
@<TRIPOS>BOND
     1     1     2 1   
     2     1    36 1   
     3     1    37 1   
     4     1    38 1   
     5     2     3 1   
     6     2    39 1   
     7     2    40 1   
     8     3     4 1   
     9     3    20 1   
    10     3    41 1   
    11     4     5 1   
    12     4    42 1   
    13     4    43 1   
    14     5     6 1   
    15     5    18 1   
    16     6     7 1   
    17     6    44 1   
    18     6    45 1   
    19     7     8 1   
    20     7    46 1   
    21     7    47 1   
    22     8     9 ar  
    23     8    17 ar  
    24     9    10 ar  
    25     9    48 1   
    26    10    11 1   
    27    10    13 ar  
    28    11    12 1   
    29    12    49 1   
    30    12    50 1   
    31    12    51 1   
    32    13    14 1   
    33    13    16 ar  
    34    14    15 1   
    35    15    52 1   
    36    15    53 1   
    37    15    54 1   
    38    16    17 ar  
    39    16    55 1   
    40    17    18 1   
    41    18    19 1   
    42    18    56 1   
    43    19    20 1   
    44    19    57 1   
    45    19    58 1   
    46    20    21 1   
    47    20    59 1   
    48    21    22 1   
    49    21    60 1   
    50    21    61 1   
    51    22    23 1   
    52    22    28 1   
    53    22    62 1   
    54    23    24 1   
    55    23    63 1   
    56    24    25 1   
    57    24    64 1   
    58    24    65 1   
    59    25    26 1   
    60    25    66 1   
    61    25    67 1   
    62    26    27 ar  
    63    26    28 ar  
    64    27    33 ar  
    65    27    68 1   
    66    28    29 ar  
    67    29    30 ar  
    68    29    69 1   
    69    30    31 1   
    70    30    33 ar  
    71    31    32 1   
    72    32    70 1   
    73    32    71 1   
    74    32    72 1   
    75    33    34 1   
    76    34    35 1   
    77    35    73 1   
    78    35    74 1   
    79    35    75 1   
@<TRIPOS>SUBSTRUCTURE
     1 34G         1 TEMP              0 ****  ****    0 ROOT
