@<TRIPOS>MOLECULE
34G
   75    79     1     0     0
SMALL
abcg2


@<TRIPOS>ATOM
      1 CAA          0.3620     5.7130     0.2960 c3         1 34G      -0.090100
      2 CAJ          0.6300     4.3080     0.8270 c3         1 34G      -0.071400
      3 CBE         -0.3000     3.2280     0.2700 c6         1 34G      -0.091700
      4 CAQ         -1.7580     3.5610     0.6140 c6         1 34G       0.169800
      5 NBI         -2.7430     2.5940     0.1770 n3         1 34G      -0.716600
      6 CAN         -2.9830     2.5940    -1.2540 c6         1 34G       0.173800
      7 CAM         -4.2680     1.8400    -1.5430 c6         1 34G      -0.026100
      8 CAX         -4.2990     0.5130    -0.8360 ca         1 34G      -0.057300
      9 CAG         -5.2010    -0.4770    -1.2460 ca         1 34G      -0.172000
     10 CAZ         -5.2790    -1.6950    -0.6010 ca         1 34G       0.114100
     11 OAT         -6.1120    -2.7000    -0.9370 os         1 34G      -0.321100
     12 CAC         -6.9600    -2.5120    -2.0510 c3         1 34G       0.145900
     13 CBB         -4.4350    -1.9450     0.5030 ca         1 34G       0.109100
     14 OAV         -4.5810    -3.1500     1.0900 os         1 34G      -0.321100
     15 CAE         -3.7760    -3.4390     2.2140 c3         1 34G       0.145900
     16 CAI         -3.5430    -0.9690     0.9010 ca         1 34G      -0.168000
     17 CBD         -3.4630     0.2620     0.2370 ca         1 34G      -0.070300
     18 CBH         -2.4430     1.2720     0.6990 c6         1 34G       0.232800
     19 CAP         -1.0200     0.8170     0.3520 c6         1 34G      -0.108400
     20 CBF          0.0420     1.8230     0.8010 c6         1 34G      -0.057700
     21 CAO          1.4370     1.3620     0.3660 c3         1 34G      -0.067400
     22 CBG          1.8830     0.0130     0.9440 c6         1 34G       0.229800
     23 NAR          1.9360     0.1210     2.3930 n7         1 34G      -0.867400
     24 CAK          2.5630    -1.0180     3.0320 c6         1 34G       0.163800
     25 CAL          4.0440    -0.9840     2.7090 c6         1 34G      -0.026100
     26 CAW          4.2460    -0.8730     1.2220 ca         1 34G      -0.058300
     27 CAF          5.4640    -1.2770     0.6610 ca         1 34G      -0.173000
     28 CBC          3.2300    -0.4180     0.3960 ca         1 34G      -0.074300
     29 CAH          3.4380    -0.4140    -0.9910 ca         1 34G      -0.167000
     30 CBA          4.6360    -0.8150    -1.5480 ca         1 34G       0.109100
     31 OAU          4.9100    -0.8360    -2.8690 os         1 34G      -0.322100
     32 CAD          3.9010    -0.4230    -3.7650 c3         1 34G       0.145900
     33 CAY          5.6780    -1.2480    -0.7030 ca         1 34G       0.115100
     34 OAS          6.8160    -1.6230    -1.3190 os         1 34G      -0.320100
     35 CAB          7.8750    -2.1020    -0.5190 c3         1 34G       0.145900
     36 H1           1.1280     6.4080     0.6420 hc         1 34G       0.031700
     37 H2           0.3740     5.7300    -0.7960 hc         1 34G       0.031700
     38 H3          -0.6000     6.1090     0.6210 hc         1 34G       0.031700
     39 H4           1.6670     4.0560     0.5970 hc         1 34G       0.042700
     40 H5           0.5560     4.3060     1.9200 hc         1 34G       0.042700
     41 H6          -0.1970     3.2140    -0.8250 hc         1 34G       0.046700
     42 H7          -1.8390     3.6640     1.7050 h1         1 34G       0.053200
     43 H8          -2.0360     4.5290     0.1920 h1         1 34G       0.053200
     44 H10         -3.0830     3.6300    -1.5850 h1         1 34G       0.032700
     45 H11         -2.1590     2.1590    -1.8390 h1         1 34G       0.032700
     46 H12         -5.1210     2.4450    -1.2180 hc         1 34G       0.052700
     47 H13         -4.3840     1.6980    -2.6200 hc         1 34G       0.052700
     48 H14         -5.8460    -0.2670    -2.0910 ha         1 34G       0.117000
     49 H15         -7.5350    -3.4280    -2.1600 h1         1 34G       0.039033
     50 H16         -7.6520    -1.6780    -1.9040 h1         1 34G       0.039033
     51 H17         -6.3950    -2.3390    -2.9710 h1         1 34G       0.039033
     52 H18         -2.7100    -3.4210     1.9710 h1         1 34G       0.038033
     53 H19         -3.9600    -2.7430     3.0370 h1         1 34G       0.038033
     54 H20         -4.0440    -4.4420     2.5370 h1         1 34G       0.038033
     55 H21         -2.8880    -1.1410     1.7460 ha         1 34G       0.115000
     56 H22         -2.5050     1.3430     1.7940 h1         1 34G       0.063700
     57 H23         -0.8420    -0.1590     0.8090 hc         1 34G       0.045700
     58 H24         -0.9350     0.6590    -0.7300 hc         1 34G       0.045700
     59 H25          0.0090     1.8930     1.8980 hc         1 34G       0.050700
     60 H26          1.4410     1.3130    -0.7270 hc         1 34G       0.051200
     61 H27          2.1940     2.0980     0.6470 hc         1 34G       0.051200
     62 H28          1.1600    -0.7610     0.6320 h1         1 34G       0.025700
     63 H29          0.9960     0.2300     2.7490 hn         1 34G       0.412000
     64 H31          2.4080    -0.9460     4.1090 h1         1 34G       0.030700
     65 H32          2.1370    -1.9820     2.7080 h1         1 34G       0.030700
     66 H33          4.5060    -0.1340     3.2220 hc         1 34G       0.053700
     67 H34          4.5370    -1.8830     3.0860 hc         1 34G       0.053700
     68 H35          6.2420    -1.6310     1.3260 ha         1 34G       0.117000
     69 H36          2.6310    -0.0960    -1.6370 ha         1 34G       0.117000
     70 H37          4.3170    -0.5170    -4.7650 h1         1 34G       0.038033
     71 H38          3.0090    -1.0520    -3.6950 h1         1 34G       0.038033
     72 H39          3.6080     0.6180    -3.6030 h1         1 34G       0.038033
     73 H40          7.5900    -2.9940     0.0460 h1         1 34G       0.038367
     74 H41          8.6840    -2.3620    -1.1980 h1         1 34G       0.038367
     75 H42          8.2360    -1.3440     0.1830 h1         1 34G       0.038367
@<TRIPOS>BOND
     1     1     2 1   
     2     1    36 1   
     3     1    37 1   
     4     1    38 1   
     5     2     3 1   
     6     2    39 1   
     7     2    40 1   
     8     3     4 1   
     9     3    20 1   
    10     3    41 1   
    11     4     5 1   
    12     4    42 1   
    13     4    43 1   
    14     5     6 1   
    15     5    18 1   
    16     6     7 1   
    17     6    44 1   
    18     6    45 1   
    19     7     8 1   
    20     7    46 1   
    21     7    47 1   
    22     8     9 ar  
    23     8    17 ar  
    24     9    10 ar  
    25     9    48 1   
    26    10    11 1   
    27    10    13 ar  
    28    11    12 1   
    29    12    49 1   
    30    12    50 1   
    31    12    51 1   
    32    13    14 1   
    33    13    16 ar  
    34    14    15 1   
    35    15    52 1   
    36    15    53 1   
    37    15    54 1   
    38    16    17 ar  
    39    16    55 1   
    40    17    18 1   
    41    18    19 1   
    42    18    56 1   
    43    19    20 1   
    44    19    57 1   
    45    19    58 1   
    46    20    21 1   
    47    20    59 1   
    48    21    22 1   
    49    21    60 1   
    50    21    61 1   
    51    22    23 1   
    52    22    28 1   
    53    22    62 1   
    54    23    24 1   
    55    23    63 1   
    56    24    25 1   
    57    24    64 1   
    58    24    65 1   
    59    25    26 1   
    60    25    66 1   
    61    25    67 1   
    62    26    27 ar  
    63    26    28 ar  
    64    27    33 ar  
    65    27    68 1   
    66    28    29 ar  
    67    29    30 ar  
    68    29    69 1   
    69    30    31 1   
    70    30    33 ar  
    71    31    32 1   
    72    32    70 1   
    73    32    71 1   
    74    32    72 1   
    75    33    34 1   
    76    34    35 1   
    77    35    73 1   
    78    35    74 1   
    79    35    75 1   
@<TRIPOS>SUBSTRUCTURE
     1 34G         1 TEMP              0 ****  ****    0 ROOT
