@<TRIPOS>MOLECULE
34H
   22    22     1     0     0
SMALL
No Charge or Current Charge


@<TRIPOS>ATOM
      1 O4          -1.5300    -1.3930    -0.9380 oh         1 34H      -0.707000
      2 C9           1.2090     1.2410    -0.1720 ca         1 34H      -0.071500
      3 C8           2.5850     1.2420    -0.4610 ca         1 34H      -0.180500
      4 C7           3.3880     0.1650    -0.0610 ca         1 34H       0.102100
      5 C6           2.8200    -0.9160     0.6310 ca         1 34H      -0.180500
      6 C5           1.4440    -0.9200     0.9210 ca         1 34H      -0.071500
      7 C4           0.6290     0.1590     0.5200 ca         1 34H      -0.064300
      8 C3          -0.8630     0.1650     0.8420 c3         1 34H      -0.036100
      9 C2          -1.7640    -0.0640    -0.3990 c3         1 34H       0.024300
     10 C1          -3.2790     0.1620    -0.0410 c          1 34H       0.690000
     11 O2          -3.7110     1.3060    -0.0040 o          1 34H      -0.720500
     12 O1          -3.9880    -0.8310     0.0720 o          1 34H      -0.720500
     13 H8           3.0250     2.0810    -0.9960 ha         1 34H       0.102500
     14 H6           3.4360    -1.7550     0.9450 ha         1 34H       0.102500
     15 H5           1.0100    -1.7620     1.4560 ha         1 34H       0.114500
     16 HO3          5.1160    -0.6520     0.0090 ho         1 34H       0.450000
     17 H31         -1.1260     1.1300     1.2910 hc         1 34H       0.050700
     18 H32         -1.0990    -0.5910     1.6010 hc         1 34H       0.050700
     19 H4          -2.3660    -1.8880    -0.7510 ho         1 34H       0.472000
     20 H2          -1.5020     0.6890    -1.1550 h1         1 34H       0.029700
     21 O3           4.7200     0.1730    -0.3440 oh         1 34H      -0.552100
     22 H9           0.5920     2.0810    -0.4840 ha         1 34H       0.114500
@<TRIPOS>BOND
     1     1     9 1   
     2     1    19 1   
     3     2     3 ar  
     4     2     7 ar  
     5     2    22 1   
     6     3     4 ar  
     7     3    13 1   
     8     4     5 ar  
     9     4    21 1   
    10     5     6 ar  
    11     5    14 1   
    12     6     7 ar  
    13     6    15 1   
    14     7     8 1   
    15     8     9 1   
    16     8    17 1   
    17     8    18 1   
    18     9    10 1   
    19     9    20 1   
    20    10    11 1   
    21    10    12 1   
    22    16    21 1   
@<TRIPOS>SUBSTRUCTURE
     1 34H         1 TEMP              0 ****  ****    0 ROOT
