@<TRIPOS>MOLECULE
34H
   22    22     1     0     0
SMALL
abcg2


@<TRIPOS>ATOM
      1 O4          -1.4050    -1.4430    -0.7370 oh         1 34H      -0.707000
      2 C9           1.2700     1.3250    -0.0830 ca         1 34H      -0.071500
      3 C8           2.6220     1.2600    -0.3810 ca         1 34H      -0.180500
      4 C7           3.3460     0.1130    -0.0630 ca         1 34H       0.102100
      5 C6           2.6960    -0.9530     0.5510 ca         1 34H      -0.180500
      6 C5           1.3400    -0.8690     0.8360 ca         1 34H      -0.071500
      7 C4           0.6000     0.2690     0.5320 ca         1 34H      -0.064300
      8 C3          -0.8740     0.3480     0.8080 c3         1 34H      -0.036100
      9 C2          -1.7160    -0.1210    -0.3830 c3         1 34H       0.024300
     10 C1          -3.2240    -0.0110    -0.0630 c          1 34H       0.690000
     11 O2          -3.6690     1.1050     0.2450 o          1 34H      -0.720500
     12 O1          -3.8580    -1.0880    -0.1440 o          1 34H      -0.720500
     13 H8           3.1190     2.0970    -0.8540 ha         1 34H       0.102500
     14 H6           3.2460    -1.8520     0.8090 ha         1 34H       0.102500
     15 H5           0.8540    -1.7110     1.3140 ha         1 34H       0.114500
     16 HO3          5.0530    -0.7440    -0.0850 ho         1 34H       0.450000
     17 H31         -1.1540     1.3770     1.0420 hc         1 34H       0.050700
     18 H32         -1.1250    -0.2580     1.6840 hc         1 34H       0.050700
     19 H4          -2.2630    -1.8930    -0.6170 ho         1 34H       0.472000
     20 H2          -1.5020     0.5520    -1.2280 h1         1 34H       0.029700
     21 O3           4.6630     0.0900    -0.3660 oh         1 34H      -0.552100
     22 H9           0.7250     2.2280    -0.3350 ha         1 34H       0.114500
@<TRIPOS>BOND
     1     1     9 1   
     2     1    19 1   
     3     2     3 ar  
     4     2     7 ar  
     5     2    22 1   
     6     3     4 ar  
     7     3    13 1   
     8     4     5 ar  
     9     4    21 1   
    10     5     6 ar  
    11     5    14 1   
    12     6     7 ar  
    13     6    15 1   
    14     7     8 1   
    15     8     9 1   
    16     8    17 1   
    17     8    18 1   
    18     9    10 1   
    19     9    20 1   
    20    10    11 1   
    21    10    12 1   
    22    16    21 1   
@<TRIPOS>SUBSTRUCTURE
     1 34H         1 TEMP              0 ****  ****    0 ROOT
