@<TRIPOS>MOLECULE
34I
   41    44     1     0     0
SMALL
bcc


@<TRIPOS>ATOM
      1 C1          -3.1560     0.1410     1.8770 ca         1 34I      -0.160000
      2 C2          -3.6570    -0.2220     0.6300 ca         1 34I       0.077600
      3 C3          -5.0370    -0.2020     0.4020 ca         1 34I      -0.115300
      4 C4          -5.8880     0.1760     1.4290 ca         1 34I      -0.096000
      5 C5          -5.3940     0.5220     2.6800 ca         1 34I      -0.145000
      6 C6          -4.0250     0.5030     2.8970 ca         1 34I      -0.101000
      7 C7          -5.5230    -0.5790    -0.9620 c6         1 34I      -0.026100
      8 C8          -4.5610    -0.0240    -1.9990 c6         1 34I      -0.155400
      9 C9          -3.1500    -0.4750    -1.7370 c          1 34I       0.717500
     10 N10         -2.8060    -0.6290    -0.4190 n          1 34I      -0.369000
     11 C11         -1.4570    -1.0400    -0.1440 c3         1 34I       0.023000
     12 C12         -0.4790     0.1110    -0.2740 c          1 34I       0.648100
     13 O13         -0.8170     1.2640    -0.4460 o          1 34I      -0.568100
     14 N14          0.8240    -0.2530    -0.1680 ns         1 34I      -0.445100
     15 C15          1.8710     0.6290    -0.2210 cc         1 34I       0.125500
     16 S16          1.6370     2.3230    -0.4620 ss         1 34I       0.084200
     17 C17          3.3190     2.6080    -0.3990 cc         1 34I      -0.138100
     18 C18          4.0260     1.4620    -0.2030 cd         1 34I      -0.007000
     19 C19          3.2010     0.2940    -0.0960 cd         1 34I      -0.231500
     20 C20          3.6360    -1.0700     0.1160 cd         1 34I       0.530000
     21 N21          4.8930    -1.5110     0.2520 na         1 34I      -0.130400
     22 N22          4.9120    -2.8340     0.4330 nd         1 34I      -0.526800
     23 C23          3.6430    -3.1530     0.3990 cc         1 34I       0.534900
     24 N24          2.8170    -2.1060     0.2070 nc         1 34I      -0.769000
     25 C25          5.4410     1.4600    -0.1150 ch         1 34I       0.251800
     26 O26         -2.3450    -0.6950    -2.6230 o          1 34I      -0.611500
     27 N27          6.5910     1.4440    -0.0310 n1         1 34I      -0.368800
     28 H1          -2.0930     0.1590     2.0740 ha         1 34I       0.135000
     29 H4          -6.9550     0.1960     1.2430 ha         1 34I       0.133000
     30 H5          -6.0710     0.8090     3.4740 ha         1 34I       0.137000
     31 H6          -3.6210     0.7830     3.8600 ha         1 34I       0.135000
     32 H7          -5.5770    -1.6690    -1.0550 hc         1 34I       0.059200
     33 H7A         -6.5290    -0.1980    -1.1340 hc         1 34I       0.059200
     34 H8          -4.8320    -0.3240    -3.0100 hc         1 34I       0.081700
     35 H8A         -4.5750     1.0710    -1.9720 hc         1 34I       0.081700
     36 H11         -1.3940    -1.4620     0.8600 h1         1 34I       0.089200
     37 H11A        -1.1650    -1.8420    -0.8250 h1         1 34I       0.089200
     38 HN14         1.0930    -1.2300    -0.0250 hn         1 34I       0.381500
     39 H17          3.7120     3.6060    -0.5100 h4         1 34I       0.183000
     40 H23          3.2980    -4.1680     0.5150 h5         1 34I       0.064100
     41 HN21         5.7630    -0.9990     0.2350 hn         1 34I       0.341700
@<TRIPOS>BOND
     1     1     2 ar  
     2     1     6 ar  
     3     1    28 1   
     4     2     3 ar  
     5     2    10 1   
     6     3     4 ar  
     7     3     7 1   
     8     4     5 ar  
     9     4    29 1   
    10     5     6 ar  
    11     5    30 1   
    12     6    31 1   
    13     7     8 1   
    14     7    32 1   
    15     7    33 1   
    16     8     9 1   
    17     8    34 1   
    18     8    35 1   
    19     9    10 1   
    20     9    26 2   
    21    10    11 1   
    22    11    12 1   
    23    11    36 1   
    24    11    37 1   
    25    12    13 2   
    26    12    14 1   
    27    14    15 1   
    28    14    38 1   
    29    15    16 1   
    30    15    19 2   
    31    16    17 1   
    32    17    18 2   
    33    17    39 1   
    34    18    19 1   
    35    18    25 1   
    36    19    20 1   
    37    20    21 1   
    38    20    24 2   
    39    21    22 1   
    40    21    41 1   
    41    22    23 2   
    42    23    24 1   
    43    23    40 1   
    44    25    27 3   
@<TRIPOS>SUBSTRUCTURE
     1 34I         1 TEMP              0 ****  ****    0 ROOT
