@<TRIPOS>MOLECULE
34I
   41    44     1     0     0
SMALL
No Charge or Current Charge


@<TRIPOS>ATOM
      1 C1          -3.1680     0.1630     1.8510 ca         1 34I      -0.142000
      2 C2          -3.6820    -0.3100     0.6220 ca         1 34I      -0.015000
      3 C3          -5.0860    -0.3670     0.4570 ca         1 34I      -0.115300
      4 C4          -5.9430    -0.1020     1.5420 ca         1 34I      -0.078000
      5 C5          -5.4130     0.2840     2.7820 ca         1 34I      -0.127000
      6 C6          -4.0260     0.4330     2.9310 ca         1 34I      -0.083000
      7 C7          -5.6740    -0.7260    -0.9050 c6         1 34I      -0.026100
      8 C8          -4.8160    -0.1170    -2.0310 c6         1 34I      -0.155400
      9 C9          -3.3330    -0.4510    -1.8560 c          1 34I       0.575000
     10 N10         -2.8260    -0.4750    -0.5330 n          1 34I      -0.209400
     11 C11         -1.3870    -0.8200    -0.3380 c3         1 34I       0.023000
     12 C12         -0.4200     0.3700    -0.4650 c          1 34I       0.581100
     13 O13         -0.7950     1.5100    -0.7110 o          1 34I      -0.568100
     14 N14          0.9090     0.0430    -0.2740 ns         1 34I      -0.378100
     15 C15          2.0380     0.8610    -0.3090 cc         1 34I      -0.019400
     16 S16          2.0480     2.6010    -0.6250 ss         1 34I       0.374000
     17 C17          3.7930     2.6500    -0.4580 cc         1 34I      -0.265000
     18 C18          4.3360     1.4170    -0.1790 cd         1 34I      -0.007000
     19 C19          3.3250     0.3870    -0.0930 cd         1 34I      -0.231500
     20 C20          3.5880    -1.0230     0.1910 cd         1 34I       0.530000
     21 N21          4.8370    -1.5750     0.4170 na         1 34I      -0.180700
     22 N22          4.7350    -2.9280     0.6540 nd         1 34I      -0.526800
     23 C23          3.4290    -3.0990     0.5530 cc         1 34I       0.534900
     24 N24          2.6880    -1.9870     0.2760 nc         1 34I      -0.769000
     25 C25          5.7450     1.2640    -0.0090 ch         1 34I       0.341000
     26 O26         -2.6380    -0.7140    -2.8310 o          1 34I      -0.536000
     27 N27          6.8910     1.0940     0.1380 n1         1 34I      -0.458000
     28 H1          -2.1030     0.3230     1.9890 ha         1 34I       0.117000
     29 H4          -7.0220    -0.1790     1.4210 ha         1 34I       0.115000
     30 H5          -6.0770     0.4960     3.6170 ha         1 34I       0.119000
     31 H6          -3.6150     0.7690     3.8810 ha         1 34I       0.117000
     32 H7          -5.7100    -1.8190    -1.0120 hc         1 34I       0.059200
     33 H7A         -6.7090    -0.3660    -0.9910 hc         1 34I       0.059200
     34 H8          -5.1600    -0.3840    -3.0390 hc         1 34I       0.081700
     35 H8A         -4.8940     0.9720    -1.9150 hc         1 34I       0.081700
     36 H11         -1.2430    -1.2740     0.6490 h1         1 34I       0.089200
     37 H11A        -1.0830    -1.5740    -1.0740 h1         1 34I       0.089200
     38 HN14         1.0840    -0.9410    -0.0780 hn         1 34I       0.381500
     39 H17          4.2960     3.6000    -0.5800 h4         1 34I       0.165000
     40 H23          2.9290    -4.0540     0.6770 h5         1 34I       0.064100
     41 HN21         5.7220    -1.0780     0.4150 hn         1 34I       0.392000
@<TRIPOS>BOND
     1     1     2 ar  
     2     1     6 ar  
     3     1    28 1   
     4     2     3 ar  
     5     2    10 1   
     6     3     4 ar  
     7     3     7 1   
     8     4     5 ar  
     9     4    29 1   
    10     5     6 ar  
    11     5    30 1   
    12     6    31 1   
    13     7     8 1   
    14     7    32 1   
    15     7    33 1   
    16     8     9 1   
    17     8    34 1   
    18     8    35 1   
    19     9    10 1   
    20     9    26 2   
    21    10    11 1   
    22    11    12 1   
    23    11    36 1   
    24    11    37 1   
    25    12    13 2   
    26    12    14 1   
    27    14    15 1   
    28    14    38 1   
    29    15    16 1   
    30    15    19 2   
    31    16    17 1   
    32    17    18 2   
    33    17    39 1   
    34    18    19 1   
    35    18    25 1   
    36    19    20 1   
    37    20    21 1   
    38    20    24 2   
    39    21    22 1   
    40    21    41 1   
    41    22    23 2   
    42    23    24 1   
    43    23    40 1   
    44    25    27 3   
@<TRIPOS>SUBSTRUCTURE
     1 34I         1 TEMP              0 ****  ****    0 ROOT
