@<TRIPOS>MOLECULE
34J
   44    46     1     0     0
SMALL
No Charge or Current Charge


@<TRIPOS>ATOM
      1 C10          0.0120    -1.3390     0.4720 cc         1 34J       0.731300
      2 C13         -3.1610     0.3710     0.4600 ca         1 34J      -0.081500
      3 C15         -5.0300     1.9180     0.8140 ca         1 34J      -0.107000
      4 C20         -4.0030    -0.4070    -0.3710 ca         1 34J      -0.067000
      5 C21         -0.8600     0.6550     1.4950 cc         1 34J      -0.313000
      6 C26          3.8420     0.5640    -0.2740 ca         1 34J      -0.006000
      7 C02          4.0710     1.7670     1.8300 ca         1 34J       0.412000
      8 C03          4.5100     0.5880     2.4420 ca         1 34J      -0.238000
      9 C04          4.6180    -0.6030     1.7080 ca         1 34J       0.010000
     10 C05          4.2830    -0.6220     0.3430 ca         1 34J      -0.117300
     11 C06          4.3800    -1.9200    -0.4590 c3         1 34J      -0.004100
     12 C07          3.0030    -2.4320    -0.9570 c3         1 34J      -0.013500
     13 N08          2.1080    -2.6940     0.2170 n7         1 34J      -0.611200
     14 N09          0.6860    -2.4280    -0.0320 nu         1 34J      -0.663900
     15 N11         -1.2450    -1.1870     0.1150 nd         1 34J      -0.753000
     16 C12         -1.7560    -0.0350     0.7030 cd         1 34J       0.364500
     17 C14         -3.6960     1.5400     1.0500 ca         1 34J      -0.099000
     18 C16         -5.8530     1.1380    -0.0120 ca         1 34J       0.108000
     19 C18         -5.3360    -0.0300    -0.6070 ca         1 34J       0.113000
     20 S22          0.6920    -0.1330     1.5350 ss         1 34J      -0.035400
     21 C23          3.1850    -3.6720    -1.9020 c          1 34J       0.700000
     22 O24          2.9000    -3.5460    -3.0860 o          1 34J      -0.717500
     23 O25          3.5580    -4.7320    -1.4120 o          1 34J      -0.717500
     24 C27          3.7360     1.7660     0.4630 ca         1 34J      -0.288200
     25 N28          3.2440     2.9860    -0.2260 no         1 34J       0.711200
     26 O29          3.7540     4.0780     0.0650 o          1 34J      -0.442000
     27 O30          2.4460     2.8350    -1.1600 o          1 34J      -0.442000
     28 H151        -5.4270     2.8200     1.2750 ha         1 34J       0.121000
     29 H201        -3.6290    -1.3120    -0.8430 ha         1 34J       0.162000
     30 H211        -1.0020     1.5670     2.0560 h4         1 34J       0.144000
     31 H011         3.9340     3.7780     2.1250 hn         1 34J       0.501000
     32 H012         4.4330     2.8830     3.5130 hn         1 34J       0.501000
     33 H041         4.9540    -1.5120     2.2040 ha         1 34J       0.118000
     34 H062         5.0280    -1.7590    -1.3300 hc         1 34J       0.061200
     35 H061         4.8640    -2.7070     0.1330 hc         1 34J       0.061200
     36 H1           2.5710    -1.6320    -1.5720 h1         1 34J       0.057700
     37 H2           2.3350    -3.5770     0.7150 hn         1 34J       0.438000
     38 H091         0.1200    -2.9890    -0.6780 hn         1 34J       0.522000
     39 H141        -3.0870     2.1670     1.6940 ha         1 34J       0.119000
     40 Cl17        -7.5210     1.6430    -0.2850 cl         1 34J      -0.196000
     41 Cl19        -6.3380    -1.0380    -1.6530 cl         1 34J      -0.189000
     42 H261         3.5850     0.5460    -1.3320 ha         1 34J       0.153000
     43 N01          3.9700     2.8810     2.6070 nv         1 34J      -1.112000
     44 H031         4.7650     0.5840     3.4980 ha         1 34J       0.108000
@<TRIPOS>BOND
     1     1    14 1   
     2     1    15 2   
     3     1    20 1   
     4     2     4 ar  
     5     2    16 1   
     6     2    17 ar  
     7     3    17 ar  
     8     3    18 ar  
     9     3    28 1   
    10     4    19 ar  
    11     4    29 1   
    12     5    16 2   
    13     5    20 1   
    14     5    30 1   
    15     6    10 ar  
    16     6    24 ar  
    17     6    42 1   
    18     7     8 ar  
    19     7    24 ar  
    20     7    43 1   
    21     8     9 ar  
    22     8    44 1   
    23     9    10 ar  
    24     9    33 1   
    25    10    11 1   
    26    11    12 1   
    27    11    34 1   
    28    11    35 1   
    29    12    13 1   
    30    12    21 1   
    31    12    36 1   
    32    13    14 1   
    33    13    37 1   
    34    14    38 1   
    35    15    16 1   
    36    17    39 1   
    37    18    19 ar  
    38    18    40 1   
    39    19    41 1   
    40    21    22 1   
    41    21    23 1   
    42    24    25 1   
    43    25    26 1   
    44    25    27 1   
    45    31    43 1   
    46    32    43 1   
@<TRIPOS>SUBSTRUCTURE
     1 34J         1 TEMP              0 ****  ****    0 ROOT
