@<TRIPOS>MOLECULE
34J
   44    46     1     0     0
SMALL
bcc


@<TRIPOS>ATOM
      1 C10          0.0110    -1.4970     0.4640 cc         1 34J       0.731300
      2 C13         -3.0700     0.2860     0.4560 ca         1 34J      -0.081500
      3 C15         -4.8950     1.8510     0.7020 ca         1 34J      -0.125000
      4 C20         -3.9460    -0.6000    -0.1680 ca         1 34J      -0.085000
      5 C21         -0.7030     0.6810     1.2140 cc         1 34J      -0.251400
      6 C26          4.0530     0.6750    -0.3300 ca         1 34J      -0.024000
      7 C02          4.0270     1.8100     1.8490 ca         1 34J       0.273600
      8 C03          4.2140     0.5270     2.4160 ca         1 34J      -0.256000
      9 C04          4.2990    -0.6030     1.6490 ca         1 34J      -0.008000
     10 C05          4.2150    -0.5570     0.2470 ca         1 34J      -0.117300
     11 C06          4.2170    -1.8070    -0.5840 c3         1 34J      -0.004100
     12 C07          2.7930    -2.2710    -0.9090 c3         1 34J      -0.013500
     13 N08          2.0870    -2.5130     0.3400 n7         1 34J      -0.556000
     14 N09          0.7160    -2.6200     0.2090 nu         1 34J      -0.608700
     15 N11         -1.2490    -1.3280     0.2160 nd         1 34J      -0.753000
     16 C12         -1.6650    -0.0910     0.6430 cd         1 34J       0.429800
     17 C14         -3.5680     1.5170     0.8870 ca         1 34J      -0.117000
     18 C16         -5.7610     0.9620     0.0800 ca         1 34J       0.016400
     19 C18         -5.2770    -0.2660    -0.3540 ca         1 34J       0.021400
     20 S22          0.8120    -0.1490     1.2230 ss         1 34J      -0.180300
     21 C23          2.7750    -3.4620    -1.9000 c          1 34J       0.910600
     22 O24          3.4470    -3.3170    -2.9380 o          1 34J      -0.822800
     23 O25          2.0750    -4.4470    -1.5890 o          1 34J      -0.822800
     24 C27          3.9610     1.8500     0.4350 ca         1 34J      -0.288200
     25 N28          3.7940     3.0770    -0.2730 no         1 34J       0.331200
     26 O29          3.6900     4.1170     0.3580 o          1 34J      -0.252000
     27 O30          3.7590     3.0600    -1.4870 o          1 34J      -0.252000
     28 H151        -5.2650     2.8080     1.0430 ha         1 34J       0.139000
     29 H201        -3.5850    -1.5590    -0.5140 ha         1 34J       0.180000
     30 H211        -0.7870     1.6770     1.6190 h4         1 34J       0.162000
     31 H011         3.8770     3.8010     2.3380 hn         1 34J       0.445800
     32 H012         4.0580     2.7170     3.6640 hn         1 34J       0.445800
     33 H041         4.4400    -1.5560     2.1430 ha         1 34J       0.136000
     34 H062         4.7420    -1.6400    -1.5240 hc         1 34J       0.061200
     35 H061         4.7540    -2.6040    -0.0600 hc         1 34J       0.061200
     36 H1           2.2850    -1.4320    -1.4020 h1         1 34J       0.057700
     37 H2           2.4290    -3.3560     0.7840 hn         1 34J       0.382800
     38 H091         0.3540    -3.2680    -0.4810 hn         1 34J       0.466800
     39 H141        -2.9210     2.2320     1.3790 ha         1 34J       0.137000
     40 CL17        -7.4120     1.3930    -0.1420 cl         1 34J      -0.104400
     41 CL19        -6.3250    -1.3940    -1.1290 cl         1 34J      -0.097400
     42 H261         3.9860     0.7500    -1.4070 ha         1 34J       0.171000
     43 N01          3.9230     2.8600     2.6790 nv         1 34J      -0.863200
     44 H031         4.2790     0.4520     3.4940 ha         1 34J       0.126000
@<TRIPOS>BOND
     1     1    14 1   
     2     1    15 2   
     3     1    20 1   
     4     2     4 ar  
     5     2    16 1   
     6     2    17 ar  
     7     3    17 ar  
     8     3    18 ar  
     9     3    28 1   
    10     4    19 ar  
    11     4    29 1   
    12     5    16 2   
    13     5    20 1   
    14     5    30 1   
    15     6    10 ar  
    16     6    24 ar  
    17     6    42 1   
    18     7     8 ar  
    19     7    24 ar  
    20     7    43 1   
    21     8     9 ar  
    22     8    44 1   
    23     9    10 ar  
    24     9    33 1   
    25    10    11 1   
    26    11    12 1   
    27    11    34 1   
    28    11    35 1   
    29    12    13 1   
    30    12    21 1   
    31    12    36 1   
    32    13    14 1   
    33    13    37 1   
    34    14    38 1   
    35    15    16 1   
    36    17    39 1   
    37    18    19 ar  
    38    18    40 1   
    39    19    41 1   
    40    21    22 1   
    41    21    23 1   
    42    24    25 1   
    43    25    26 1   
    44    25    27 1   
    45    31    43 1   
    46    32    43 1   
@<TRIPOS>SUBSTRUCTURE
     1 34J         1 TEMP              0 ****  ****    0 ROOT
