@<TRIPOS>MOLECULE
34K
   40    42     1     0     0
SMALL
abcg2


@<TRIPOS>ATOM
      1 C15          2.9730     0.7250    -0.0050 ca         1 34K      -0.080500
      2 C17          4.2410    -1.3390     0.0690 ca         1 34K      -0.095500
      3 C20          5.3940     0.7720    -0.1000 ca         1 34K      -0.095500
      4 C21          4.1750     1.4290    -0.0910 ca         1 34K      -0.093500
      5 C22          1.4750     2.7430    -0.2080 cc         1 34K      -0.324000
      6 C24         -5.0620     2.5660     0.3120 c          1 34K       0.636700
      7 C28         -4.4290    -1.2660    -2.6800 ca         1 34K      -0.077000
      8 C01         -4.0970    -2.6030    -2.5120 ca         1 34K      -0.134000
      9 C02         -3.8600    -3.0870    -1.2400 ca         1 34K      -0.068000
     10 C03         -3.9790    -2.2300    -0.1530 ca         1 34K      -0.184200
     11 N04         -3.7820    -2.8290     1.1590 no         1 34K       0.689200
     12 O05         -2.8990    -3.6450     1.2780 o          1 34K      -0.406000
     13 O06         -4.5280    -2.4990     2.0510 o          1 34K      -0.406000
     14 C07         -4.2880    -0.8740    -0.2850 ca         1 34K       0.011700
     15 C08         -4.3670     0.1040     0.8680 c3         1 34K      -0.118400
     16 C09         -3.9750     1.5090     0.4960 ce         1 34K       0.278300
     17 N10         -2.7700     1.8830     0.3050 n2         1 34K      -0.398400
     18 C12         -0.5070     1.4380     0.1900 cc         1 34K       0.728300
     19 N13          0.5380     0.6800     0.2240 nd         1 34K      -0.761000
     20 C14          1.6780     1.4140    -0.0010 cd         1 34K       0.362500
     21 C16          3.0280    -0.6670     0.0770 ca         1 34K      -0.093500
     22 C18          5.4180    -0.6130    -0.0200 ca         1 34K      -0.023900
     23 S23         -0.2080     3.1180    -0.1200 ss         1 34K       0.035600
     24 O25         -4.7110     3.7540     0.3050 o          1 34K      -0.686500
     25 O26         -6.2110     2.1040     0.1660 o          1 34K      -0.686500
     26 C27         -4.5150    -0.4220    -1.5840 ca         1 34K      -0.093000
     27 BR1          7.0750    -1.5170    -0.0300 br         1 34K      -0.126100
     28 H171         4.2530    -2.4190     0.1310 ha         1 34K       0.121500
     29 H201         6.3090     1.3460    -0.1670 ha         1 34K       0.121500
     30 H211         4.1770     2.5100    -0.1450 ha         1 34K       0.130000
     31 H221         2.1960     3.5180    -0.4110 h4         1 34K       0.145000
     32 H281        -4.6220    -0.8750    -3.6690 ha         1 34K       0.118000
     33 H011        -4.0230    -3.2660    -3.3630 ha         1 34K       0.113000
     34 H021        -3.6110    -4.1280    -1.0920 ha         1 34K       0.132000
     35 H081        -5.3900     0.1170     1.2420 hc         1 34K       0.085200
     36 H082        -3.7470    -0.2220     1.7070 hc         1 34K       0.085200
     37 H111        -1.9070     0.0090     0.5670 hn         1 34K       0.491000
     38 H161         2.1140    -1.2390     0.1480 ha         1 34K       0.130000
     39 H271        -4.7620     0.6170    -1.7460 ha         1 34K       0.164000
     40 N11         -1.7730     0.9960     0.3830 nu         1 34K      -0.628200
@<TRIPOS>BOND
     1     1     4 ar  
     2     1    20 1   
     3     1    21 ar  
     4     2    21 ar  
     5     2    22 ar  
     6     2    28 1   
     7     3     4 ar  
     8     3    22 ar  
     9     3    29 1   
    10     4    30 1   
    11     5    20 2   
    12     5    23 1   
    13     5    31 1   
    14     6    16 1   
    15     6    24 1   
    16     6    25 1   
    17     7     8 ar  
    18     7    26 ar  
    19     7    32 1   
    20     8     9 ar  
    21     8    33 1   
    22     9    10 ar  
    23     9    34 1   
    24    10    11 1   
    25    10    14 ar  
    26    11    12 1   
    27    11    13 1   
    28    14    15 1   
    29    14    26 ar  
    30    15    16 1   
    31    15    35 1   
    32    15    36 1   
    33    16    17 2   
    34    17    40 1   
    35    18    19 2   
    36    18    23 1   
    37    18    40 1   
    38    19    20 1   
    39    21    38 1   
    40    22    27 1   
    41    26    39 1   
    42    37    40 1   
@<TRIPOS>SUBSTRUCTURE
     1 34K         1 TEMP              0 ****  ****    0 ROOT
