@<TRIPOS>MOLECULE
34K
   40    42     1     0     0
SMALL
No Charge or Current Charge


@<TRIPOS>ATOM
      1 C15          2.8320     0.6670    -0.0440 ca         1 34K      -0.080500
      2 C17          3.9350    -1.5040    -0.3500 ca         1 34K      -0.095500
      3 C20          5.2760     0.5150    -0.2010 ca         1 34K      -0.095500
      4 C21          4.1070     1.2820    -0.0480 ca         1 34K      -0.093500
      5 C22          1.5620     2.8450     0.2720 cc         1 34K      -0.324000
      6 C24         -5.4200     2.5690     0.1960 c          1 34K       0.636700
      7 C28         -3.9760    -1.3790    -2.6740 ca         1 34K      -0.077000
      8 C01         -3.5170    -2.6670    -2.3690 ca         1 34K      -0.134000
      9 C02         -3.4000    -3.0700    -1.0310 ca         1 34K      -0.068000
     10 C03         -3.7370    -2.1840     0.0190 ca         1 34K      -0.184200
     11 N04         -3.6300    -2.6830     1.4220 no         1 34K       0.689200
     12 O05         -2.6420    -3.3680     1.7130 o          1 34K      -0.406000
     13 O06         -4.6100    -2.5400     2.1650 o          1 34K      -0.406000
     14 C07         -4.1750    -0.8640    -0.2840 ca         1 34K       0.011700
     15 C08         -4.4940     0.1620     0.8140 c3         1 34K      -0.118400
     16 C09         -4.2180     1.6290     0.4440 ce         1 34K       0.278300
     17 N10         -3.0020     2.1280     0.4290 n2         1 34K      -0.398400
     18 C12         -0.5870     1.7680     0.2740 cc         1 34K       0.728300
     19 N13          0.3490     0.8580     0.1190 nd         1 34K      -0.761000
     20 C14          1.5960     1.4730     0.1160 cd         1 34K       0.362500
     21 C16          2.7650    -0.7390    -0.1980 ca         1 34K      -0.093500
     22 C18          5.1890    -0.8770    -0.3510 ca         1 34K      -0.023900
     23 S23         -0.0710     3.4280     0.4300 ss         1 34K       0.035600
     24 O25         -5.2200     3.7570    -0.0410 o          1 34K      -0.686500
     25 O26         -6.5580     2.1110     0.2260 o          1 34K      -0.686500
     26 C27         -4.3030    -0.4860    -1.6400 ca         1 34K      -0.093000
     27 Br1          6.7790    -1.9180    -0.5590 br         1 34K      -0.126100
     28 H171         3.8650    -2.5830    -0.4670 ha         1 34K       0.121500
     29 H201         6.2480     1.0020    -0.2020 ha         1 34K       0.121500
     30 H211         4.2070     2.3580     0.0660 ha         1 34K       0.130000
     31 H221         2.3770     3.5520     0.3040 h4         1 34K       0.145000
     32 H281        -4.0750    -1.0680    -3.7120 ha         1 34K       0.118000
     33 H011        -3.2620    -3.3570    -3.1700 ha         1 34K       0.113000
     34 H021        -3.0600    -4.0800    -0.8100 ha         1 34K       0.132000
     35 H081        -5.5380     0.0270     1.1150 hc         1 34K       0.085200
     36 H082        -3.9190    -0.0530     1.7210 hc         1 34K       0.085200
     37 H111        -1.9180     0.3160     0.1690 hn         1 34K       0.491000
     38 H161         1.8050    -1.2490    -0.2000 ha         1 34K       0.130000
     39 H271        -4.6540     0.5080    -1.9070 ha         1 34K       0.164000
     40 N11         -1.8850     1.3280     0.2980 nu         1 34K      -0.628200
@<TRIPOS>BOND
     1     1     4 ar  
     2     1    20 1   
     3     1    21 ar  
     4     2    21 ar  
     5     2    22 ar  
     6     2    28 1   
     7     3     4 ar  
     8     3    22 ar  
     9     3    29 1   
    10     4    30 1   
    11     5    20 2   
    12     5    23 1   
    13     5    31 1   
    14     6    16 1   
    15     6    24 1   
    16     6    25 1   
    17     7     8 ar  
    18     7    26 ar  
    19     7    32 1   
    20     8     9 ar  
    21     8    33 1   
    22     9    10 ar  
    23     9    34 1   
    24    10    11 1   
    25    10    14 ar  
    26    11    12 1   
    27    11    13 1   
    28    14    15 1   
    29    14    26 ar  
    30    15    16 1   
    31    15    35 1   
    32    15    36 1   
    33    16    17 2   
    34    17    40 1   
    35    18    19 2   
    36    18    23 1   
    37    18    40 1   
    38    19    20 1   
    39    21    38 1   
    40    22    27 1   
    41    26    39 1   
    42    37    40 1   
@<TRIPOS>SUBSTRUCTURE
     1 34K         1 TEMP              0 ****  ****    0 ROOT
