@<TRIPOS>MOLECULE
34L
   27    30     1     0     0
SMALL
abcg2


@<TRIPOS>ATOM
      1 C01          1.8880    -0.3200     0.1720 ca         1 34L      -0.133000
      2 C02          3.2240     0.1260     0.1500 ca         1 34L       0.059400
      3 C03          3.5220     1.4660    -0.1080 ca         1 34L      -0.018000
      4 C04          2.4980     2.3660    -0.3420 ca         1 34L      -0.140000
      5 C05          1.1880     1.9000    -0.3130 ca         1 34L       0.068600
      6 C06          0.8480     0.5700    -0.0620 ca         1 34L      -0.066800
      7 N07          0.0230     2.6200    -0.5160 ns         1 34L      -0.388100
      8 C08         -1.0870     1.8390    -0.4130 c          1 34L       0.585200
      9 C09         -0.6000     0.4660    -0.1170 cc         1 34L      -0.183400
     10 C10         -1.3370    -0.6580     0.0620 cf         1 34L       0.022800
     11 C11         -2.7390    -0.8820     0.0310 cd         1 34L      -0.249800
     12 C12         -4.9010    -0.6250    -0.1270 cd         1 34L       0.419400
     13 N13         -3.7400     0.0280    -0.1880 na         1 34L      -0.263500
     14 C14         -3.4040    -2.0860     0.2180 cc         1 34L       0.290900
     15 N15         -4.7360    -1.9130     0.1180 nc         1 34L      -0.685000
     16 O16         -2.2340     2.2450    -0.5490 o          1 34L      -0.577000
     17 N17          4.1600    -0.8530     0.3990 nc         1 34L      -0.514100
     18 C18          3.6000    -1.9860     0.6020 cd         1 34L       0.389100
     19 S19          1.8600    -2.0110     0.5180 ss         1 34L       0.017800
     20 H1           4.5530     1.7900    -0.1240 ha         1 34L       0.137000
     21 H2           2.7110     3.4070    -0.5430 ha         1 34L       0.128000
     22 H3          -0.0140     3.6100    -0.7090 hn         1 34L       0.344500
     23 H4          -0.7910    -1.5730     0.2670 ha         1 34L       0.190000
     24 H5          -5.8500    -0.1310    -0.2660 h5         1 34L       0.060100
     25 H6          -3.5630     1.0170    -0.3590 hn         1 34L       0.403000
     26 H7          -2.9570    -3.0490     0.4180 h4         1 34L       0.039100
     27 H9           4.1360    -2.9000     0.8180 h5         1 34L       0.061800
@<TRIPOS>BOND
     1     1     2 ar  
     2     1     6 ar  
     3     1    19 1   
     4     2     3 ar  
     5     2    17 1   
     6     3     4 ar  
     7     3    20 1   
     8     4     5 ar  
     9     4    21 1   
    10     5     6 ar  
    11     5     7 1   
    12     6     9 1   
    13     7     8 1   
    14     7    22 1   
    15     8     9 1   
    16     8    16 2   
    17     9    10 2   
    18    10    11 1   
    19    10    23 1   
    20    11    13 1   
    21    11    14 2   
    22    12    13 1   
    23    12    15 2   
    24    12    24 1   
    25    13    25 1   
    26    14    15 1   
    27    14    26 1   
    28    17    18 2   
    29    18    19 1   
    30    18    27 1   
@<TRIPOS>SUBSTRUCTURE
     1 34L         1 TEMP              0 ****  ****    0 ROOT
