@<TRIPOS>MOLECULE
34L
   27    30     1     0     0
SMALL
No Charge or Current Charge


@<TRIPOS>ATOM
      1 C01          1.9400    -0.3170     0.1700 ca         1 34L      -0.133000
      2 C02          3.2660     0.1150     0.1550 ca         1 34L       0.059400
      3 C03          3.5720     1.4740    -0.0980 ca         1 34L      -0.018000
      4 C04          2.5350     2.4010    -0.3370 ca         1 34L      -0.140000
      5 C05          1.2190     1.9260    -0.3130 ca         1 34L       0.068600
      6 C06          0.8940     0.6000    -0.0670 ca         1 34L      -0.066800
      7 N07          0.0310     2.6140    -0.5120 ns         1 34L      -0.388100
      8 C08         -1.0970     1.8520    -0.4210 c          1 34L       0.585200
      9 C09         -0.5780     0.4810    -0.1210 cc         1 34L      -0.183400
     10 C10         -1.3240    -0.6590     0.0650 cf         1 34L       0.022800
     11 C11         -2.7740    -0.8910     0.0340 cd         1 34L      -0.249800
     12 C12         -4.9970    -0.6570    -0.1300 cd         1 34L       0.419400
     13 N13         -3.7950     0.0160    -0.2000 na         1 34L      -0.263500
     14 C14         -3.4240    -2.0820     0.2360 cc         1 34L       0.290900
     15 N15         -4.7800    -1.9380     0.1350 nc         1 34L      -0.685000
     16 O16         -2.2400     2.2620    -0.5630 o          1 34L      -0.577000
     17 N17          4.2500    -0.8410     0.3960 nc         1 34L      -0.514100
     18 C18          3.6160    -2.0090     0.5940 cd         1 34L       0.389100
     19 S19          1.8380    -2.0390     0.5060 ss         1 34L       0.017800
     20 H1           4.6080     1.8020    -0.1090 ha         1 34L       0.137000
     21 H2           2.7530     3.4480    -0.5330 ha         1 34L       0.128000
     22 H3          -0.0070     3.6060    -0.7110 hn         1 34L       0.344500
     23 H4          -0.7470    -1.5540     0.2730 ha         1 34L       0.190000
     24 H5          -5.9530    -0.1670    -0.2780 h5         1 34L       0.060100
     25 H6          -3.6850     1.0090    -0.3910 hn         1 34L       0.403000
     26 H7          -2.9930    -3.0520     0.4510 h4         1 34L       0.039100
     27 H9           4.1300    -2.9380     0.8060 h5         1 34L       0.061800
@<TRIPOS>BOND
     1     1     2 ar  
     2     1     6 ar  
     3     1    19 1   
     4     2     3 ar  
     5     2    17 1   
     6     3     4 ar  
     7     3    20 1   
     8     4     5 ar  
     9     4    21 1   
    10     5     6 ar  
    11     5     7 1   
    12     6     9 1   
    13     7     8 1   
    14     7    22 1   
    15     8     9 1   
    16     8    16 2   
    17     9    10 2   
    18    10    11 1   
    19    10    23 1   
    20    11    13 1   
    21    11    14 2   
    22    12    13 1   
    23    12    15 2   
    24    12    24 1   
    25    13    25 1   
    26    14    15 1   
    27    14    26 1   
    28    17    18 2   
    29    18    19 1   
    30    18    27 1   
@<TRIPOS>SUBSTRUCTURE
     1 34L         1 TEMP              0 ****  ****    0 ROOT
