@<TRIPOS>MOLECULE
34N
   52    54     1     0     0
SMALL
No Charge or Current Charge


@<TRIPOS>ATOM
      1 C5          -4.6650    -1.5560     0.1900 ca         1 34N      -0.269500
      2 C6          -4.5890    -0.6510     1.2670 ca         1 34N      -0.013000
      3 C7          -3.4030     0.0660     1.5000 ca         1 34N      -0.126000
      4 C8          -2.2770    -0.1070     0.6710 ca         1 34N      -0.018300
      5 C10         -3.5490    -1.7280    -0.6520 ca         1 34N      -0.013000
      6 C15          4.0680     0.5190     0.9080 c          1 34N       0.610700
      7 C17          5.2210    -0.3190     0.3880 ca         1 34N      -0.132600
      8 C20          7.4290    -1.8390    -0.5520 ca         1 34N       0.004000
      9 C21          7.6420    -0.6710     0.2020 ca         1 34N      -0.081500
     10 C22          6.5490     0.0810     0.6670 ca         1 34N      -0.078000
     11 C26         -1.2640     2.3170    -1.0050 ca         1 34N      -0.077000
     12 C28         -1.3950     4.7210    -0.6700 ca         1 34N       0.176000
     13 F29         -1.5140     5.9680    -1.1760 f          1 34N      -0.176000
     14 C27         -1.3870     3.6150    -1.5320 ca         1 34N      -0.149500
     15 C30         -1.2820     4.5390     0.7160 ca         1 34N      -0.149500
     16 C31         -1.1590     3.2420     1.2450 ca         1 34N      -0.077000
     17 C25         -1.1470     2.1220     0.3880 ca         1 34N      -0.103300
     18 C11         -1.0110     0.7110     0.9660 c3         1 34N       0.028900
     19 C9          -2.3650    -1.0090    -0.4130 ca         1 34N      -0.126000
     20 S2          -6.1900    -2.4690    -0.1240 sy         1 34N       1.060500
     21 O3          -5.8710    -3.6760    -0.8970 o          1 34N      -0.523000
     22 O4          -6.9650    -2.5430     1.1220 o          1 34N      -0.523000
     23 C1          -7.0940    -1.3810    -1.2240 c3         1 34N      -0.337100
     24 C12          0.3110     0.0310     0.5180 c3         1 34N      -0.087400
     25 N14          2.7960     0.0820     0.6070 ns         1 34N      -0.502900
     26 O16          4.2450     1.5360     1.5650 o          1 34N      -0.592100
     27 C23          8.5470    -2.6080    -1.0290 cg         1 34N       0.317000
     28 N24          9.4490    -3.2390    -1.4200 n1         1 34N      -0.440000
     29 C19          6.1140    -2.2470    -0.8370 ca         1 34N      -0.081500
     30 C18          5.0190    -1.4970    -0.3730 ca         1 34N      -0.078000
     31 H6          -5.4440    -0.4950     1.9240 ha         1 34N       0.138000
     32 H7          -3.3620     0.7650     2.3330 ha         1 34N       0.119500
     33 H10         -3.5920    -2.4160    -1.4960 ha         1 34N       0.138000
     34 H13          1.5850     1.7900     0.6240 h1         1 34N       0.060200
     35 H13A         1.5500     0.8230     2.1180 h1         1 34N       0.060200
     36 H21          8.6540    -0.3430     0.4300 ha         1 34N       0.131000
     37 H22          6.7400     0.9800     1.2490 ha         1 34N       0.131000
     38 H26         -1.2630     1.4650    -1.6810 ha         1 34N       0.118000
     39 H27         -1.4770     3.7640    -2.6050 ha         1 34N       0.135000
     40 H30         -1.2900     5.4010     1.3780 ha         1 34N       0.135000
     41 H31         -1.0720     3.1110     2.3220 ha         1 34N       0.118000
     42 H11         -0.9400     0.7910     2.0580 hc         1 34N       0.067700
     43 H9          -1.5260    -1.1580    -1.0850 ha         1 34N       0.119500
     44 H1          -6.4910    -1.2290    -2.1250 h1         1 34N       0.102700
     45 H1A         -8.0470    -1.8610    -1.4710 h1         1 34N       0.102700
     46 H1B         -7.2600    -0.4320    -0.7060 h1         1 34N       0.102700
     47 H12          0.3570    -0.0260    -0.5750 hc         1 34N       0.050700
     48 H12A         0.3270    -0.9980     0.8980 hc         1 34N       0.050700
     49 HN14         2.7160    -0.7650     0.0610 hn         1 34N       0.314500
     50 H19          5.9370    -3.1490    -1.4200 ha         1 34N       0.131000
     51 H18          4.0190    -1.8490    -0.6160 ha         1 34N       0.131000
     52 C13          1.5700     0.7660     1.0220 c3         1 34N       0.098000
@<TRIPOS>BOND
     1     1     2 ar  
     2     1     5 ar  
     3     1    20 1   
     4     2     3 ar  
     5     2    31 1   
     6     3     4 ar  
     7     3    32 1   
     8     4    18 1   
     9     4    19 ar  
    10     5    19 ar  
    11     5    33 1   
    12     6     7 1   
    13     6    25 1   
    14     6    26 2   
    15     7    10 ar  
    16     7    30 ar  
    17     8     9 ar  
    18     8    27 1   
    19     8    29 ar  
    20     9    10 ar  
    21     9    36 1   
    22    10    37 1   
    23    11    14 ar  
    24    11    17 ar  
    25    11    38 1   
    26    12    13 1   
    27    12    14 ar  
    28    12    15 ar  
    29    14    39 1   
    30    15    16 ar  
    31    15    40 1   
    32    16    17 ar  
    33    16    41 1   
    34    17    18 1   
    35    18    24 1   
    36    18    42 1   
    37    19    43 1   
    38    20    21 2   
    39    20    22 2   
    40    20    23 1   
    41    23    44 1   
    42    23    45 1   
    43    23    46 1   
    44    24    47 1   
    45    24    48 1   
    46    24    52 1   
    47    25    49 1   
    48    25    52 1   
    49    27    28 3   
    50    29    30 ar  
    51    29    50 1   
    52    30    51 1   
    53    34    52 1   
    54    35    52 1   
@<TRIPOS>SUBSTRUCTURE
     1 34N         1 TEMP              0 ****  ****    0 ROOT
