@<TRIPOS>MOLECULE
34N
   52    54     1     0     0
SMALL
abcg2


@<TRIPOS>ATOM
      1 C5          -4.5270    -1.5330     0.1880 ca         1 34N      -0.269500
      2 C6          -4.4690    -0.6340     1.2460 ca         1 34N      -0.013000
      3 C7          -3.3020     0.0770     1.4570 ca         1 34N      -0.126000
      4 C8          -2.1890    -0.0990     0.6340 ca         1 34N      -0.018300
      5 C10         -3.4360    -1.7290    -0.6430 ca         1 34N      -0.013000
      6 C15          3.9420     0.2890     1.0970 c          1 34N       0.610700
      7 C17          5.0910    -0.4610     0.4940 ca         1 34N      -0.132600
      8 C20          7.2850    -1.8220    -0.5210 ca         1 34N       0.004000
      9 C21          7.4750    -0.6500     0.2100 ca         1 34N      -0.081500
     10 C22          6.3790     0.0170     0.7230 ca         1 34N      -0.078000
     11 C26         -1.3470     2.3380    -1.0170 ca         1 34N      -0.077000
     12 C28         -1.4560     4.6900    -0.6630 ca         1 34N       0.176000
     13 F29         -1.6060     5.9310    -1.1550 f          1 34N      -0.176000
     14 C27         -1.5040     3.6150    -1.5320 ca         1 34N      -0.149500
     15 C30         -1.2580     4.5250     0.6920 ca         1 34N      -0.149500
     16 C31         -1.1020     3.2360     1.1860 ca         1 34N      -0.077000
     17 C25         -1.1410     2.1300     0.3450 ca         1 34N      -0.103300
     18 C11         -0.9520     0.7310     0.9010 c3         1 34N       0.028900
     19 C9          -2.2720    -1.0110    -0.4130 ca         1 34N      -0.126000
     20 S2          -6.0230    -2.4380    -0.1020 sy         1 34N       1.060500
     21 O3          -5.6970    -3.6400    -0.8660 o          1 34N      -0.523000
     22 O4          -6.7260    -2.5870     1.1700 o          1 34N      -0.523000
     23 C1          -6.9760    -1.3570    -1.1430 c3         1 34N      -0.337100
     24 C12          0.3430     0.0860     0.3990 c3         1 34N      -0.087400
     25 N14          2.7790     0.2060     0.4350 ns         1 34N      -0.502900
     26 O16          4.0880     0.9200     2.1340 o          1 34N      -0.592100
     27 C23          8.4140    -2.5230    -1.0430 cg         1 34N       0.317000
     28 N24          9.3250    -3.0910    -1.4620 n1         1 34N      -0.440000
     29 C19          6.0030    -2.3190    -0.7410 ca         1 34N      -0.081500
     30 C18          4.9120    -1.6350    -0.2350 ca         1 34N      -0.078000
     31 H6          -5.3150    -0.4890     1.9050 ha         1 34N       0.138000
     32 H7          -3.2550     0.7790     2.2800 ha         1 34N       0.119500
     33 H10         -3.4770    -2.4350    -1.4620 ha         1 34N       0.138000
     34 H13          1.5300     1.8880     0.5490 h1         1 34N       0.060200
     35 H13A         1.5700     0.8710     1.9790 h1         1 34N       0.060200
     36 H21          8.4730    -0.2680     0.3780 ha         1 34N       0.131000
     37 H22          6.5260     0.9190     1.3000 ha         1 34N       0.131000
     38 H26         -1.3900     1.4980    -1.7000 ha         1 34N       0.118000
     39 H27         -1.6600     3.7720    -2.5910 ha         1 34N       0.135000
     40 H30         -1.2240     5.3800     1.3530 ha         1 34N       0.135000
     41 H31         -0.9430     3.0970     2.2480 ha         1 34N       0.118000
     42 H11         -0.8650     0.8230     1.9880 hc         1 34N       0.067700
     43 H9          -1.4250    -1.1840    -1.0640 ha         1 34N       0.119500
     44 H1          -6.4270    -1.1630    -2.0620 h1         1 34N       0.102700
     45 H1A         -7.9130    -1.8650    -1.3680 h1         1 34N       0.102700
     46 H1B         -7.1720    -0.4260    -0.6170 h1         1 34N       0.102700
     47 H12          0.3510     0.0420    -0.6950 hc         1 34N       0.050700
     48 H12A         0.3980    -0.9440     0.7590 hc         1 34N       0.050700
     49 HN14         2.7770    -0.1780    -0.4960 hn         1 34N       0.314500
     50 H19          5.8590    -3.2360    -1.2970 ha         1 34N       0.131000
     51 H18          3.9230    -2.0460    -0.3950 ha         1 34N       0.131000
     52 C13          1.5640     0.8490     0.8890 c3         1 34N       0.098000
@<TRIPOS>BOND
     1     1     2 ar  
     2     1     5 ar  
     3     1    20 1   
     4     2     3 ar  
     5     2    31 1   
     6     3     4 ar  
     7     3    32 1   
     8     4    18 1   
     9     4    19 ar  
    10     5    19 ar  
    11     5    33 1   
    12     6     7 1   
    13     6    25 1   
    14     6    26 2   
    15     7    10 ar  
    16     7    30 ar  
    17     8     9 ar  
    18     8    27 1   
    19     8    29 ar  
    20     9    10 ar  
    21     9    36 1   
    22    10    37 1   
    23    11    14 ar  
    24    11    17 ar  
    25    11    38 1   
    26    12    13 1   
    27    12    14 ar  
    28    12    15 ar  
    29    14    39 1   
    30    15    16 ar  
    31    15    40 1   
    32    16    17 ar  
    33    16    41 1   
    34    17    18 1   
    35    18    24 1   
    36    18    42 1   
    37    19    43 1   
    38    20    21 2   
    39    20    22 2   
    40    20    23 1   
    41    23    44 1   
    42    23    45 1   
    43    23    46 1   
    44    24    47 1   
    45    24    48 1   
    46    24    52 1   
    47    25    49 1   
    48    25    52 1   
    49    27    28 3   
    50    29    30 ar  
    51    29    50 1   
    52    30    51 1   
    53    34    52 1   
    54    35    52 1   
@<TRIPOS>SUBSTRUCTURE
     1 34N         1 TEMP              0 ****  ****    0 ROOT
