@<TRIPOS>MOLECULE
34O
   38    41     1     0     0
SMALL
abcg2


@<TRIPOS>ATOM
      1 C8          -8.3030     0.2180     0.1470 c5         1 34O       0.375600
      2 C10         -2.4190     0.4670    -0.1810 cc         1 34O       0.484500
      3 C6          -6.3620    -0.8530     0.3430 ca         1 34O       0.079100
      4 C5          -6.1010     0.4440    -0.0840 ca         1 34O       0.042100
      5 C4          -4.8280     0.9070    -0.2650 ca         1 34O      -0.052000
      6 C1          -5.3540    -1.7450     0.6060 ca         1 34O      -0.110000
      7 C2          -4.0440    -1.2940     0.4290 ca         1 34O      -0.069000
      8 C3          -3.7800     0.0040     0.0030 ca         1 34O      -0.147500
      9 C19          5.7140     0.3420     0.9210 ca         1 34O       0.137000
     10 C20          6.3720    -0.2860    -0.1400 ca         1 34O       0.117100
     11 O23          7.6350    -0.6720     0.0840 os         1 34O      -0.320100
     12 C24          8.3300    -1.3190    -0.9670 c3         1 34O       0.145900
     13 C21          5.6670    -0.4520    -1.3270 ca         1 34O      -0.181000
     14 C22          4.3560    -0.0020    -1.4360 ca         1 34O      -0.064000
     15 C18          4.4180     0.7860     0.8240 ca         1 34O      -0.099000
     16 C17          3.7210     0.6220    -0.3740 ca         1 34O      -0.110300
     17 C16          2.3010     1.0830    -0.4890 c3         1 34O       0.110900
     18 C12         -0.3120     0.3950    -0.2010 cc         1 34O       0.502300
     19 N13         -0.6350     1.5770    -0.5930 nd         1 34O      -0.373000
     20 N14         -2.0070     1.6190    -0.5790 nd         1 34O      -0.353000
     21 O11         -1.3830    -0.3600     0.0770 os         1 34O      -0.263000
     22 O7          -7.6930    -1.0390     0.4240 os         1 34O      -0.340100
     23 O9          -7.2690     1.0950    -0.2800 os         1 34O      -0.339100
     24 H8          -9.0420     0.1010    -0.6450 h2         1 34O       0.068700
     25 H8A         -8.7710     0.6080     1.0550 h2         1 34O       0.068700
     26 H4          -4.6300     1.9170    -0.5980 ha         1 34O       0.159000
     27 H1          -5.5570    -2.7550     0.9350 ha         1 34O       0.140000
     28 H2          -3.2340    -1.9810     0.6320 ha         1 34O       0.135000
     29 H24          8.4270    -0.6770    -1.8450 h1         1 34O       0.045700
     30 H24A         9.3210    -1.5470    -0.5840 h1         1 34O       0.045700
     31 H24B         7.8410    -2.2510    -1.2610 h1         1 34O       0.045700
     32 H21          6.1270    -0.9320    -2.1790 ha         1 34O       0.124000
     33 H22          3.8320    -0.1430    -2.3720 ha         1 34O       0.123000
     34 H18          3.9540     1.2670     1.6760 ha         1 34O       0.139000
     35 H16          2.0910     1.9230     0.1710 h1         1 34O       0.089200
     36 H16A         2.0480     1.3610    -1.5100 h1         1 34O       0.089200
     37 S15          1.2430    -0.3260     0.0070 ss         1 34O      -0.281300
     38 F25          6.3890     0.5130     2.0680 f          1 34O      -0.164000
@<TRIPOS>BOND
     1     1    22 1   
     2     1    23 1   
     3     1    24 1   
     4     1    25 1   
     5     2     8 1   
     6     2    20 2   
     7     2    21 1   
     8     3     4 ar  
     9     3     6 ar  
    10     3    22 1   
    11     4     5 ar  
    12     4    23 1   
    13     5     8 ar  
    14     5    26 1   
    15     6     7 ar  
    16     6    27 1   
    17     7     8 ar  
    18     7    28 1   
    19     9    10 ar  
    20     9    15 ar  
    21     9    38 1   
    22    10    11 1   
    23    10    13 ar  
    24    11    12 1   
    25    12    29 1   
    26    12    30 1   
    27    12    31 1   
    28    13    14 ar  
    29    13    32 1   
    30    14    16 ar  
    31    14    33 1   
    32    15    16 ar  
    33    15    34 1   
    34    16    17 1   
    35    17    35 1   
    36    17    36 1   
    37    17    37 1   
    38    18    19 2   
    39    18    21 1   
    40    18    37 1   
    41    19    20 1   
@<TRIPOS>SUBSTRUCTURE
     1 34O         1 TEMP              0 ****  ****    0 ROOT
