@<TRIPOS>MOLECULE
34O
   38    41     1     0     0
SMALL
No Charge or Current Charge


@<TRIPOS>ATOM
      1 C8          -8.4380     0.3850     0.0400 c5         1 34O       0.375600
      2 C10         -2.4630     0.3270    -0.1270 cc         1 34O       0.484500
      3 C6          -6.5650    -0.7390     0.3810 ca         1 34O       0.079100
      4 C5          -6.2330     0.4950    -0.0970 ca         1 34O       0.042100
      5 C4          -4.8990     0.8810    -0.2780 ca         1 34O      -0.052000
      6 C1          -5.5890    -1.6830     0.7140 ca         1 34O      -0.110000
      7 C2          -4.2330    -1.3280     0.5470 ca         1 34O      -0.069000
      8 C3          -3.8740    -0.0430     0.0490 ca         1 34O      -0.147500
      9 C19          5.8250     0.3360     0.9640 ca         1 34O       0.137000
     10 C20          6.5090    -0.2120    -0.1420 ca         1 34O       0.117100
     11 O23          7.8440    -0.5490     0.0010 os         1 34O      -0.320100
     12 C24          8.6160    -1.1130    -1.0750 c3         1 34O       0.145900
     13 C21          5.8120    -0.3990    -1.3570 ca         1 34O      -0.181000
     14 C22          4.4540    -0.0420    -1.4550 ca         1 34O      -0.064000
     15 C18          4.4700     0.6920     0.8630 ca         1 34O      -0.099000
     16 C17          3.7780     0.5060    -0.3490 ca         1 34O      -0.110300
     17 C16          2.3080     0.8870    -0.4590 c3         1 34O       0.110900
     18 C12         -0.3820     0.1400    -0.1070 cc         1 34O       0.502300
     19 N13         -0.6170     1.3560    -0.5650 nd         1 34O      -0.373000
     20 N14         -1.9850     1.4790    -0.5790 nd         1 34O      -0.353000
     21 O11         -1.4930    -0.5680     0.1910 os         1 34O      -0.263000
     22 O7          -7.9070    -0.9170     0.4750 os         1 34O      -0.340100
     23 O9          -7.3230     1.2570    -0.3660 os         1 34O      -0.339100
     24 H8          -9.1170     0.2390    -0.8090 h2         1 34O       0.068700
     25 H8A         -8.9750     0.8520     0.8740 h2         1 34O       0.068700
     26 H4          -4.6700     1.8730    -0.6630 ha         1 34O       0.159000
     27 H1          -5.8700    -2.6630     1.0920 ha         1 34O       0.140000
     28 H2          -3.4650    -2.0560     0.8040 ha         1 34O       0.135000
     29 H24          8.6550    -0.4250    -1.9290 h1         1 34O       0.045700
     30 H24A         9.6450    -1.3030    -0.7450 h1         1 34O       0.045700
     31 H24B         8.1850    -2.0660    -1.4070 h1         1 34O       0.045700
     32 H21          6.3010    -0.8190    -2.2310 ha         1 34O       0.124000
     33 H22          3.9270    -0.1950    -2.3950 ha         1 34O       0.123000
     34 H18          3.9610     1.1100     1.7280 ha         1 34O       0.139000
     35 H16          2.1040     1.7710     0.1600 h1         1 34O       0.089200
     36 H16A         2.0610     1.1370    -1.4990 h1         1 34O       0.089200
     37 S15          1.2380    -0.5120     0.1020 ss         1 34O      -0.281300
     38 F25          6.4690     0.5240     2.1400 f          1 34O      -0.164000
@<TRIPOS>BOND
     1     1    22 1   
     2     1    23 1   
     3     1    24 1   
     4     1    25 1   
     5     2     8 1   
     6     2    20 2   
     7     2    21 1   
     8     3     4 ar  
     9     3     6 ar  
    10     3    22 1   
    11     4     5 ar  
    12     4    23 1   
    13     5     8 ar  
    14     5    26 1   
    15     6     7 ar  
    16     6    27 1   
    17     7     8 ar  
    18     7    28 1   
    19     9    10 ar  
    20     9    15 ar  
    21     9    38 1   
    22    10    11 1   
    23    10    13 ar  
    24    11    12 1   
    25    12    29 1   
    26    12    30 1   
    27    12    31 1   
    28    13    14 ar  
    29    13    32 1   
    30    14    16 ar  
    31    14    33 1   
    32    15    16 ar  
    33    15    34 1   
    34    16    17 1   
    35    17    35 1   
    36    17    36 1   
    37    17    37 1   
    38    18    19 2   
    39    18    21 1   
    40    18    37 1   
    41    19    20 1   
@<TRIPOS>SUBSTRUCTURE
     1 34O         1 TEMP              0 ****  ****    0 ROOT
