@<TRIPOS>MOLECULE
34P
   63    65     1     0     0
SMALL
abcg2


@<TRIPOS>ATOM
      1 C16          0.9370    -1.2750    -0.2430 c          1 34P       0.565100
      2 O17          0.0320    -0.9280    -0.9910 o          1 34P      -0.602100
      3 C18          2.1830    -0.4170    -0.0020 c3         1 34P       0.145500
      4 C21          3.2350    -0.7780    -1.0560 c3         1 34P      -0.060400
      5 C22          4.5720    -0.0560    -0.9060 c6         1 34P      -0.054700
      6 C23          5.2050    -0.2540     0.4710 c6         1 34P      -0.069900
      7 C24          6.5700     0.4210     0.5750 c6         1 34P      -0.073400
      8 C25          7.5160    -0.0460    -0.5250 c6         1 34P      -0.072400
      9 C26          6.8950     0.1650    -1.9010 c6         1 34P      -0.073400
     10 C27          5.5350    -0.5180    -2.0020 c6         1 34P      -0.069900
     11 N19          1.9340     1.0020     0.0570 n7         1 34P      -0.866400
     12 C20          1.5750     1.7180    -1.1490 c3         1 34P       0.016800
     13 C30          0.9900     3.1090    -0.8430 c          1 34P       0.715000
     14 O32          0.8610     3.8650    -1.8280 o          1 34P      -0.733500
     15 O31          0.6680     3.3610     0.3350 o          1 34P      -0.733500
     16 N15          0.8630    -2.4580     0.4000 n          1 34P      -0.415800
     17 C11         -0.3080    -3.2950     0.2160 c5         1 34P       0.032700
     18 C9          -1.5760    -2.5570     0.6180 c          1 34P       0.601100
     19 O10         -1.6420    -1.8840     1.6310 o          1 34P      -0.568100
     20 C12         -0.0480    -4.4920     1.1420 c5         1 34P      -0.086400
     21 C13          1.4720    -4.5390     1.2420 c5         1 34P      -0.096400
     22 C14          1.8540    -3.0670     1.2790 c5         1 34P       0.114000
     23 C1          -3.8750     1.5080    -0.8250 cc         1 34P      -0.201000
     24 C2          -4.9090     1.2490     0.0210 cd         1 34P       0.201700
     25 N3          -4.9990    -0.0490     0.4360 nd         1 34P      -0.667000
     26 C4          -4.0610    -0.7760    -0.0740 cc         1 34P       0.360700
     27 S5          -2.9750     0.0850    -1.1020 ss         1 34P       0.120600
     28 C7          -3.9410    -2.2550     0.1390 c3         1 34P       0.082700
     29 N8          -2.6380    -2.7680    -0.1820 ns         1 34P      -0.515900
     30 N28         -5.7600     3.4640     0.0980 n2         1 34P      -0.838100
     31 N29         -6.8510     1.7520     1.3060 nv         1 34P      -1.096200
     32 H18          2.5840    -0.6900     0.9790 h1         1 34P       0.044700
     33 H211         3.4140    -1.8590    -1.0200 hc         1 34P       0.034700
     34 H212         2.8300    -0.5750    -2.0530 hc         1 34P       0.034700
     35 H22          4.4040     1.0190    -1.0450 hc         1 34P       0.086700
     36 H231         4.5470     0.1450     1.2470 hc         1 34P       0.033700
     37 H232         5.3120    -1.3290     0.6670 hc         1 34P       0.033700
     38 H241         6.4390     1.5060     0.5030 hc         1 34P       0.036200
     39 H242         7.0050     0.2270     1.5590 hc         1 34P       0.036200
     40 H251         8.4710     0.4810    -0.4530 hc         1 34P       0.026200
     41 H252         7.7350    -1.1110    -0.3860 hc         1 34P       0.026200
     42 H261         6.7740     1.2390    -2.0830 hc         1 34P       0.036200
     43 H262         7.5620    -0.2090    -2.6820 hc         1 34P       0.036200
     44 H271         5.6700    -1.6040    -1.9270 hc         1 34P       0.033700
     45 H272         5.0950    -0.3290    -2.9860 hc         1 34P       0.033700
     46 HN19         1.2620     1.2240     0.7790 hn         1 34P       0.458000
     47 H201         2.4580     1.8570    -1.7820 h1         1 34P       0.024700
     48 H202         0.8370     1.1970    -1.7690 h1         1 34P       0.024700
     49 H11         -0.3780    -3.6280    -0.8250 h1         1 34P       0.055700
     50 H121        -0.4760    -4.3090     2.1300 hc         1 34P       0.054700
     51 H122        -0.4880    -5.4070     0.7510 hc         1 34P       0.054700
     52 H131         1.8240    -5.0790     2.1200 hc         1 34P       0.047200
     53 H132         1.9020    -5.0130     0.3580 hc         1 34P       0.047200
     54 H141         1.7790    -2.6670     2.2950 h1         1 34P       0.052200
     55 H142         2.8690    -2.8970     0.9230 h1         1 34P       0.052200
     56 H71         -4.2100    -2.4790     1.1730 h1         1 34P       0.060200
     57 H72         -4.6660    -2.7630    -0.4970 h1         1 34P       0.060200
     58 HN8         -2.5310    -3.3140    -1.0200 hn         1 34P       0.316500
     59 HN28        -6.4860     4.0560     0.4920 hn         1 34P       0.359400
     60 H291        -6.7340     0.8320     1.6940 hn         1 34P       0.473000
     61 H292        -7.4410     2.3840     1.8200 hn         1 34P       0.473000
     62 C6          -5.8850     2.2560     0.4990 cf         1 34P       0.599200
     63 H1          -3.6030     2.4540    -1.2660 h4         1 34P       0.194000
@<TRIPOS>BOND
     1     1     2 2   
     2     1     3 1   
     3     1    16 1   
     4     3     4 1   
     5     3    11 1   
     6     3    32 1   
     7     4     5 1   
     8     4    33 1   
     9     4    34 1   
    10     5     6 1   
    11     5    10 1   
    12     5    35 1   
    13     6     7 1   
    14     6    36 1   
    15     6    37 1   
    16     7     8 1   
    17     7    38 1   
    18     7    39 1   
    19     8     9 1   
    20     8    40 1   
    21     8    41 1   
    22     9    10 1   
    23     9    42 1   
    24     9    43 1   
    25    10    44 1   
    26    10    45 1   
    27    11    12 1   
    28    11    46 1   
    29    12    13 1   
    30    12    47 1   
    31    12    48 1   
    32    13    14 1   
    33    13    15 1   
    34    16    17 1   
    35    16    22 1   
    36    17    18 1   
    37    17    20 1   
    38    17    49 1   
    39    18    19 2   
    40    18    29 1   
    41    20    21 1   
    42    20    50 1   
    43    20    51 1   
    44    21    22 1   
    45    21    52 1   
    46    21    53 1   
    47    22    54 1   
    48    22    55 1   
    49    23    24 2   
    50    23    27 1   
    51    23    63 1   
    52    24    25 1   
    53    24    62 1   
    54    25    26 2   
    55    26    27 1   
    56    26    28 1   
    57    28    29 1   
    58    28    56 1   
    59    28    57 1   
    60    29    58 1   
    61    30    59 1   
    62    30    62 2   
    63    31    60 1   
    64    31    61 1   
    65    31    62 1   
@<TRIPOS>SUBSTRUCTURE
     1 34P         1 TEMP              0 ****  ****    0 ROOT
