@<TRIPOS>MOLECULE
34P
   63    65     1     0     0
SMALL
No Charge or Current Charge


@<TRIPOS>ATOM
      1 C16          0.9680    -0.9490    -0.2310 c          1 34P       0.565100
      2 O17          0.0230    -0.4980    -0.8720 o          1 34P      -0.602100
      3 C18          2.3080    -0.1310    -0.0250 c3         1 34P       0.145500
      4 C21          3.3730    -0.5420    -1.0890 c3         1 34P      -0.060400
      5 C22          4.8330    -0.0380    -0.8460 c6         1 34P      -0.054700
      6 C23          5.4570    -0.6230     0.4560 c6         1 34P      -0.069900
      7 C24          6.9130    -0.1340     0.6630 c6         1 34P      -0.073400
      8 C25          7.7970    -0.4630    -0.5630 c6         1 34P      -0.072400
      9 C26          7.1890     0.1240    -1.8590 c6         1 34P      -0.073400
     10 C27          5.7360    -0.3700    -2.0680 c6         1 34P      -0.069900
     11 N19          2.1520     1.3700     0.0740 n7         1 34P      -0.866400
     12 C20          1.8610     2.1460    -1.1860 c3         1 34P       0.016800
     13 C30          1.5660     3.6790    -0.9790 c          1 34P       0.715000
     14 O32          2.2430     4.4940    -1.5930 o          1 34P      -0.733500
     15 O31          0.6870     4.0000    -0.1870 o          1 34P      -0.733500
     16 N15          0.8600    -2.2390     0.3500 n          1 34P      -0.415800
     17 C11         -0.3870    -3.0560     0.2630 c5         1 34P       0.032700
     18 C9          -1.6870    -2.3610     0.7860 c          1 34P       0.601100
     19 O10         -1.7760    -1.4590     1.6080 o          1 34P      -0.568100
     20 C12         -0.0540    -4.2420     1.2200 c5         1 34P      -0.086400
     21 C13          1.4770    -4.3830     1.0520 c5         1 34P      -0.096400
     22 C14          1.9350    -2.9070     1.1170 c5         1 34P       0.114000
     23 C1          -4.7170     1.0330    -1.1500 cc         1 34P      -0.201000
     24 C2          -5.5390     0.9000    -0.0480 cd         1 34P       0.201700
     25 N3          -5.4220    -0.3420     0.5980 nd         1 34P      -0.667000
     26 C4          -4.5200    -1.0950    -0.0250 cc         1 34P       0.360700
     27 S5          -3.7640    -0.3930    -1.4340 ss         1 34P       0.120600
     28 C7          -4.1800    -2.5060     0.4130 c3         1 34P       0.082700
     29 N8          -2.7870    -2.9250     0.1690 ns         1 34P      -0.515900
     30 N28         -6.5820     3.1190    -0.1040 n2         1 34P      -0.838100
     31 N29         -7.2460     1.6920     1.5020 nv         1 34P      -1.096200
     32 H18          2.6830    -0.4620     0.9500 h1         1 34P       0.044700
     33 H211         3.3910    -1.6350    -1.1610 hc         1 34P       0.034700
     34 H212         3.0260    -0.2080    -2.0740 hc         1 34P       0.034700
     35 H22          4.7790     1.0550    -0.7470 hc         1 34P       0.086700
     36 H231         4.8620    -0.3330     1.3320 hc         1 34P       0.033700
     37 H232         5.4410    -1.7220     0.4180 hc         1 34P       0.033700
     38 H241         6.9160     0.9500     0.8410 hc         1 34P       0.036200
     39 H242         7.3370    -0.5990     1.5630 hc         1 34P       0.036200
     40 H251         8.8090    -0.0630    -0.4120 hc         1 34P       0.026200
     41 H252         7.9020    -1.5520    -0.6640 hc         1 34P       0.026200
     42 H261         7.2040     1.2220    -1.8110 hc         1 34P       0.036200
     43 H262         7.8070    -0.1590    -2.7220 hc         1 34P       0.036200
     44 H271         5.7410    -1.4540    -2.2460 hc         1 34P       0.033700
     45 H272         5.3230     0.0920    -2.9760 hc         1 34P       0.033700
     46 HN19         1.3930     1.5700     0.7420 hn         1 34P       0.458000
     47 H201         2.7070     2.0660    -1.8820 h1         1 34P       0.024700
     48 H202         0.9850     1.7300    -1.6990 h1         1 34P       0.024700
     49 H11         -0.5380    -3.4000    -0.7690 h1         1 34P       0.055700
     50 H121        -0.3050    -4.0050     2.2610 hc         1 34P       0.054700
     51 H122        -0.5950    -5.1580     0.9570 hc         1 34P       0.054700
     52 H131         1.9360    -4.9990     1.8330 hc         1 34P       0.047200
     53 H132         1.7300    -4.8340     0.0850 hc         1 34P       0.047200
     54 H141         1.9600    -2.5370     2.1510 h1         1 34P       0.052200
     55 H142         2.9320    -2.7800     0.6770 h1         1 34P       0.052200
     56 H71         -4.3860    -2.6020     1.4870 h1         1 34P       0.060200
     57 H72         -4.8470    -3.2000    -0.1130 h1         1 34P       0.060200
     58 HN8         -2.6130    -3.6760    -0.4890 hn         1 34P       0.316500
     59 HN28        -7.4040     3.5870     0.2930 hn         1 34P       0.359400
     60 H291        -7.0430     0.8130     1.9720 hn         1 34P       0.473000
     61 H292        -7.5630     2.4470     2.0990 hn         1 34P       0.473000
     62 C6          -6.4820     1.9680     0.4400 cf         1 34P       0.599200
     63 H1          -4.6190     1.8820    -1.8120 h4         1 34P       0.194000
@<TRIPOS>BOND
     1     1     2 2   
     2     1     3 1   
     3     1    16 1   
     4     3     4 1   
     5     3    11 1   
     6     3    32 1   
     7     4     5 1   
     8     4    33 1   
     9     4    34 1   
    10     5     6 1   
    11     5    10 1   
    12     5    35 1   
    13     6     7 1   
    14     6    36 1   
    15     6    37 1   
    16     7     8 1   
    17     7    38 1   
    18     7    39 1   
    19     8     9 1   
    20     8    40 1   
    21     8    41 1   
    22     9    10 1   
    23     9    42 1   
    24     9    43 1   
    25    10    44 1   
    26    10    45 1   
    27    11    12 1   
    28    11    46 1   
    29    12    13 1   
    30    12    47 1   
    31    12    48 1   
    32    13    14 1   
    33    13    15 1   
    34    16    17 1   
    35    16    22 1   
    36    17    18 1   
    37    17    20 1   
    38    17    49 1   
    39    18    19 2   
    40    18    29 1   
    41    20    21 1   
    42    20    50 1   
    43    20    51 1   
    44    21    22 1   
    45    21    52 1   
    46    21    53 1   
    47    22    54 1   
    48    22    55 1   
    49    23    24 2   
    50    23    27 1   
    51    23    63 1   
    52    24    25 1   
    53    24    62 1   
    54    25    26 2   
    55    26    27 1   
    56    26    28 1   
    57    28    29 1   
    58    28    56 1   
    59    28    57 1   
    60    29    58 1   
    61    30    59 1   
    62    30    62 2   
    63    31    60 1   
    64    31    61 1   
    65    31    62 1   
@<TRIPOS>SUBSTRUCTURE
     1 34P         1 TEMP              0 ****  ****    0 ROOT
