@<TRIPOS>MOLECULE
34Q
   46    49     1     0     0
SMALL
No Charge or Current Charge


@<TRIPOS>ATOM
      1 N1           0.0770     0.9440     0.1420 n          1 34Q      -0.381800
      2 N3           1.8880    -0.2450     2.4380 n8         1 34Q      -0.986200
      3 C4           3.7980     0.6680     0.3550 c          1 34Q       0.610100
      4 C5           6.2010     0.0620    -0.1370 c5         1 34Q       0.101500
      5 C6           6.7810    -0.8540    -1.2420 c5         1 34Q      -0.094400
      6 C7           4.4440    -1.3890    -1.0710 c5         1 34Q       0.101500
      7 C8           5.8330    -2.0730    -1.1540 c5         1 34Q      -0.094400
      8 C10         -1.1200     1.7040     0.0820 c          1 34Q       0.517600
      9 C13         -5.0330     0.0050    -0.0680 ca         1 34Q       0.233000
     10 C15         -4.0800    -2.1720    -0.6660 ca         1 34Q      -0.074000
     11 C17         -2.4890     1.0140     0.0340 ca         1 34Q       0.264500
     12 O2          -1.0360     2.9290     0.0270 o          1 34Q      -0.596100
     13 C18         -3.6330     1.8120     0.2880 ca         1 34Q       0.344900
     14 N5          -4.9030     1.3200     0.2460 nb         1 34Q      -0.630000
     15 C14         -3.8890    -0.8160    -0.3420 ca         1 34Q       0.217000
     16 N4          -2.6280    -0.3120    -0.2970 nb         1 34Q      -0.623000
     17 C16         -5.3700    -2.7270    -0.7220 ca         1 34Q      -0.103000
     18 C12         -6.3170    -0.5690    -0.1280 ca         1 34Q      -0.076000
     19 C11         -6.4890    -1.9260    -0.4520 ca         1 34Q      -0.097000
     20 C1           1.4110     1.5850     0.1010 c5         1 34Q       0.118000
     21 C2           2.3220     0.3350    -0.0080 c5         1 34Q      -0.157700
     22 C3           1.6580    -0.6190     1.0260 c5         1 34Q       0.150500
     23 C9           0.1590    -0.4710     0.5990 c5         1 34Q       0.116000
     24 O1           4.1580     1.5390     1.1370 o          1 34Q      -0.589100
     25 N2           4.7480    -0.1550    -0.3030 n          1 34Q      -0.423800
     26 HN3          1.5190    -0.9820     3.0510 hn         1 34Q       0.402000
     27 HN3A         2.8940    -0.2470     2.6380 hn         1 34Q       0.402000
     28 H5A          6.4860     1.1130    -0.2830 h1         1 34Q       0.050700
     29 H6           6.7230    -0.3730    -2.2260 hc         1 34Q       0.055200
     30 H6A          7.8310    -1.1140    -1.0620 hc         1 34Q       0.055200
     31 H7           4.0670    -1.1380    -2.0720 h1         1 34Q       0.050700
     32 H7A          3.7110    -2.0350    -0.5700 h1         1 34Q       0.050700
     33 H8           5.9190    -2.7440    -2.0160 hc         1 34Q       0.055200
     34 H8A          6.0350    -2.6660    -0.2540 hc         1 34Q       0.055200
     35 H15         -3.2170    -2.7980    -0.8760 ha         1 34Q       0.131000
     36 H18         -3.5390     2.8680     0.5380 h4         1 34Q       0.052100
     37 H16         -5.5000    -3.7780    -0.9730 ha         1 34Q       0.119000
     38 H12         -7.1880     0.0470     0.0790 ha         1 34Q       0.136000
     39 H11         -7.4880    -2.3530    -0.4950 ha         1 34Q       0.120000
     40 H1           1.5250     2.2550    -0.7620 h1         1 34Q       0.078200
     41 H1A          1.5940     2.1630     1.0170 h1         1 34Q       0.078200
     42 H2           2.2540    -0.1230    -1.0000 hc         1 34Q       0.065700
     43 H3           2.0100    -1.6530     0.9070 h1         1 34Q       0.029700
     44 H9          -0.5270    -0.6870     1.4290 h1         1 34Q       0.058200
     45 H9A         -0.0730    -1.1530    -0.2300 h1         1 34Q       0.058200
     46 H5           6.5270    -0.2530     0.8640 h1         1 34Q       0.050700
@<TRIPOS>BOND
     1     1     8 1   
     2     1    20 1   
     3     1    23 1   
     4     2    22 1   
     5     2    26 1   
     6     2    27 1   
     7     3    21 1   
     8     3    24 2   
     9     3    25 1   
    10     4     5 1   
    11     4    25 1   
    12     4    28 1   
    13     4    46 1   
    14     5     7 1   
    15     5    29 1   
    16     5    30 1   
    17     6     7 1   
    18     6    25 1   
    19     6    31 1   
    20     6    32 1   
    21     7    33 1   
    22     7    34 1   
    23     8    11 1   
    24     8    12 2   
    25     9    14 ar  
    26     9    15 ar  
    27     9    18 ar  
    28    10    15 ar  
    29    10    17 ar  
    30    10    35 1   
    31    11    13 ar  
    32    11    16 ar  
    33    13    14 ar  
    34    13    36 1   
    35    15    16 ar  
    36    17    19 ar  
    37    17    37 1   
    38    18    19 ar  
    39    18    38 1   
    40    19    39 1   
    41    20    21 1   
    42    20    40 1   
    43    20    41 1   
    44    21    22 1   
    45    21    42 1   
    46    22    23 1   
    47    22    43 1   
    48    23    44 1   
    49    23    45 1   
@<TRIPOS>SUBSTRUCTURE
     1 34Q         1 TEMP              0 ****  ****    0 ROOT
