@<TRIPOS>MOLECULE
34Q
   46    49     1     0     0
SMALL
bcc


@<TRIPOS>ATOM
      1 N1           0.0210     0.8640    -0.1210 n          1 34Q      -0.448800
      2 N3           1.7230    -0.2040     2.0540 n8         1 34Q      -0.875800
      3 C4           3.6990     0.7000     0.1160 c          1 34Q       0.677100
      4 C5           6.0730     0.1380     0.0890 c5         1 34Q       0.101500
      5 C6           6.8460    -0.8840    -0.7360 c5         1 34Q      -0.094400
      6 C7           4.5270    -1.3930    -0.9850 c5         1 34Q       0.101500
      7 C8           5.8850    -2.0640    -0.8240 c5         1 34Q      -0.094400
      8 C10         -1.0800     1.6160    -0.1050 c          1 34Q       0.584600
      9 C13         -4.8690    -0.0710     0.3440 ca         1 34Q       0.298300
     10 C15         -4.1590    -1.9600    -1.0340 ca         1 34Q      -0.157300
     11 C17         -2.4060     0.9390     0.0710 ca         1 34Q       0.264500
     12 O2          -1.0620     2.8350    -0.2440 o          1 34Q      -0.596100
     13 C18         -3.4180     1.6090     0.8110 ca         1 34Q       0.344900
     14 N5          -4.6100     1.1110     0.9540 nb         1 34Q      -0.630000
     15 C14         -3.8660    -0.7320    -0.4040 ca         1 34Q       0.282300
     16 N4          -2.6290    -0.2000    -0.5180 nb         1 34Q      -0.623000
     17 C16         -5.4090    -2.5020    -0.9130 ca         1 34Q      -0.121000
     18 C12         -6.1490    -0.6510     0.4540 ca         1 34Q      -0.159300
     19 C11         -6.4100    -1.8430    -0.1660 ca         1 34Q      -0.115000
     20 C1           1.3230     1.4910    -0.3190 c5         1 34Q       0.118000
     21 C2           2.2880     0.3120    -0.2830 c5         1 34Q      -0.157700
     22 C3           1.5970    -0.6670     0.6850 c5         1 34Q       0.150500
     23 C9           0.1480    -0.5470     0.2320 c5         1 34Q       0.116000
     24 O1           3.9340     1.7360     0.7300 o          1 34Q      -0.589100
     25 N2           4.6760    -0.1530    -0.2250 n          1 34Q      -0.490800
     26 HN3          1.1880    -0.8140     2.6610 hn         1 34Q       0.346800
     27 HN3A         2.6820    -0.2860     2.3690 hn         1 34Q       0.346800
     28 H5A          6.3260     1.1660    -0.1710 h1         1 34Q       0.050700
     29 H6           7.0480    -0.4870    -1.7330 hc         1 34Q       0.055200
     30 H6A          7.8020    -1.1410    -0.2810 hc         1 34Q       0.055200
     31 H7           4.3150    -1.1800    -2.0380 h1         1 34Q       0.050700
     32 H7A          3.7200    -2.0120    -0.5980 h1         1 34Q       0.050700
     33 H8           6.1040    -2.7450    -1.6450 hc         1 34Q       0.055200
     34 H8A          5.9060    -2.6430     0.1020 hc         1 34Q       0.055200
     35 H15         -3.3810    -2.4520    -1.6040 ha         1 34Q       0.149000
     36 H18         -3.2050     2.5580     1.2900 h4         1 34Q       0.052100
     37 H16         -5.6390    -3.4440    -1.3920 ha         1 34Q       0.137000
     38 H12         -6.9070    -0.1370     1.0310 ha         1 34Q       0.154000
     39 H11         -7.3920    -2.2900    -0.0860 ha         1 34Q       0.138000
     40 H1           1.3610     2.0260    -1.2690 h1         1 34Q       0.078200
     41 H1A          1.5300     2.2050     0.4790 h1         1 34Q       0.078200
     42 H2           2.3050    -0.1610    -1.2690 hc         1 34Q       0.065700
     43 H3           1.9460    -1.6960     0.5300 h1         1 34Q       0.029700
     44 H9          -0.5500    -0.8330     1.0190 h1         1 34Q       0.058200
     45 H9A         -0.0360    -1.1890    -0.6300 h1         1 34Q       0.058200
     46 H5           6.2560     0.0120     1.1600 h1         1 34Q       0.050700
@<TRIPOS>BOND
     1     1     8 1   
     2     1    20 1   
     3     1    23 1   
     4     2    22 1   
     5     2    26 1   
     6     2    27 1   
     7     3    21 1   
     8     3    24 2   
     9     3    25 1   
    10     4     5 1   
    11     4    25 1   
    12     4    28 1   
    13     4    46 1   
    14     5     7 1   
    15     5    29 1   
    16     5    30 1   
    17     6     7 1   
    18     6    25 1   
    19     6    31 1   
    20     6    32 1   
    21     7    33 1   
    22     7    34 1   
    23     8    11 1   
    24     8    12 2   
    25     9    14 ar  
    26     9    15 ar  
    27     9    18 ar  
    28    10    15 ar  
    29    10    17 ar  
    30    10    35 1   
    31    11    13 ar  
    32    11    16 ar  
    33    13    14 ar  
    34    13    36 1   
    35    15    16 ar  
    36    17    19 ar  
    37    17    37 1   
    38    18    19 ar  
    39    18    38 1   
    40    19    39 1   
    41    20    21 1   
    42    20    40 1   
    43    20    41 1   
    44    21    22 1   
    45    21    42 1   
    46    22    23 1   
    47    22    43 1   
    48    23    44 1   
    49    23    45 1   
@<TRIPOS>SUBSTRUCTURE
     1 34Q         1 TEMP              0 ****  ****    0 ROOT
