@<TRIPOS>MOLECULE
34R
   67    71     1     0     0
SMALL
No Charge or Current Charge


@<TRIPOS>ATOM
      1 O30         -2.2490    -2.0360     1.0550 o          1 34R      -0.581100
      2 C16         -1.8240    -1.0250     0.5060 c          1 34R       0.627300
      3 C15         -0.3860    -0.9410     0.0880 ce         1 34R      -0.267200
      4 C14          0.5370    -1.9330     0.2800 cf         1 34R      -0.090200
      5 C13          1.9770    -1.9710    -0.0910 ca         1 34R      -0.050800
      6 C10          2.8160    -3.0310     0.3490 ca         1 34R       0.084100
      7 O11          2.2150    -4.0100     1.1420 os         1 34R      -0.346100
      8 C12          2.8810    -5.1600     1.6940 c3         1 34R       0.148900
      9 C07          4.1990    -3.0390    -0.0270 ca         1 34R       0.120100
     10 O08          5.0410    -4.0600     0.3850 os         1 34R      -0.325100
     11 C09          6.4360    -4.1260     0.0350 c3         1 34R       0.144900
     12 C06          4.7050    -1.9890    -0.8280 ca         1 34R      -0.197000
     13 C05          3.8720    -0.9460    -1.2590 ca         1 34R      -0.061300
     14 C04          4.4260     0.1850    -2.1220 c3         1 34R       0.042200
     15 C03          4.1940     1.5590    -1.4930 ca         1 34R      -0.318300
     16 C32          3.3200     2.4840    -2.0940 ca         1 34R       0.174900
     17 N33          3.1030     3.7010    -1.5600 nb         1 34R      -0.279000
     18 C34          3.7690     3.9730    -0.4300 ca         1 34R       0.408900
     19 N35          3.5550     5.1930     0.1120 nv         1 34R      -1.055900
     20 N36          4.6170     3.1810     0.2320 nb         1 34R      -0.332000
     21 C02          4.8230     1.9770    -0.3100 ca         1 34R       0.429900
     22 N01          5.6740     1.1820     0.3780 nv         1 34R      -1.070900
     23 C31          2.5190    -0.9460    -0.8930 ca         1 34R      -0.112000
     24 N17         -2.6770     0.0880     0.2520 n          1 34R      -0.179800
     25 N18         -2.2160     1.2560    -0.3590 n2         1 34R      -0.434300
     26 C19         -2.5720     2.4250     0.0840 ce         1 34R       0.388800
     27 C22         -3.8250     2.5780     0.8770 ca         1 34R      -0.162900
     28 C40         -4.2530     3.8410     1.3310 ca         1 34R      -0.080000
     29 C38         -5.4470     3.9570     2.0640 ca         1 34R      -0.109000
     30 C37         -6.2170     2.8150     2.3420 ca         1 34R      -0.095000
     31 C23         -5.7940     1.5540     1.8870 ca         1 34R      -0.095000
     32 C21         -4.5980     1.4330     1.1540 ca         1 34R      -0.072300
     33 C20         -4.1190     0.0640     0.6480 c6         1 34R       0.194300
     34 C24         -5.0020    -0.4750    -0.4860 ca         1 34R      -0.099300
     35 C25         -5.5010    -1.7920    -0.4260 ca         1 34R      -0.087500
     36 C26         -6.3100    -2.2930    -1.4610 ca         1 34R      -0.113000
     37 C27         -6.6250    -1.4820    -2.5640 ca         1 34R      -0.104000
     38 C28         -6.1280    -0.1690    -2.6320 ca         1 34R      -0.113000
     39 C29         -5.3200     0.3330    -1.5980 ca         1 34R      -0.087500
     40 H1          -0.0840    -0.0160    -0.3900 ha         1 34R       0.207000
     41 H2           0.1730    -2.8370     0.7730 ha         1 34R       0.210000
     42 H3           2.1710    -5.7600     2.2770 h1         1 34R       0.038033
     43 H4           3.2850    -5.7990     0.9000 h1         1 34R       0.038033
     44 H5           3.6930    -4.8580     2.3670 h1         1 34R       0.038033
     45 H6           6.8940    -5.0220     0.4720 h1         1 34R       0.041700
     46 H7           6.5630    -4.1790    -1.0540 h1         1 34R       0.041700
     47 H8           6.9760    -3.2500     0.4140 h1         1 34R       0.041700
     48 H9           5.7470    -1.9710    -1.1320 ha         1 34R       0.117000
     49 H10          5.4990     0.0430    -2.3050 hc         1 34R       0.053200
     50 H11          3.9570     0.1390    -3.1130 hc         1 34R       0.053200
     51 H12          2.7850     2.2510    -3.0140 h4         1 34R       0.013100
     52 H13          2.7600     5.7350    -0.2200 hn         1 34R       0.488500
     53 H14          3.8550     5.3570     1.0690 hn         1 34R       0.488500
     54 H15          5.9030     1.4600     1.3280 hn         1 34R       0.492500
     55 H16          5.6110     0.1830     0.2080 hn         1 34R       0.492500
     56 H17          1.8920    -0.1350    -1.2490 ha         1 34R       0.129000
     57 H18         -2.0320     3.3320    -0.1940 h4         1 34R       0.039800
     58 H19         -3.6630     4.7300     1.1160 ha         1 34R       0.117000
     59 H20         -5.7760     4.9330     2.4140 ha         1 34R       0.117000
     60 H21         -7.1420     2.9070     2.9070 ha         1 34R       0.117000
     61 H22         -6.3950     0.6730     2.1020 ha         1 34R       0.120000
     62 H23         -4.2210    -0.6200     1.5030 h1         1 34R       0.091700
     63 H24         -5.2620    -2.4300     0.4220 ha         1 34R       0.114500
     64 H25         -6.6920    -3.3100    -1.4080 ha         1 34R       0.112500
     65 H26         -7.2510    -1.8700    -3.3650 ha         1 34R       0.111000
     66 H27         -6.3700     0.4600    -3.4870 ha         1 34R       0.112500
     67 H28         -4.9390     1.3490    -1.6630 ha         1 34R       0.114500
@<TRIPOS>BOND
     1     1     2 2   
     2     2     3 1   
     3     2    24 1   
     4     3     4 2   
     5     3    40 1   
     6     4     5 1   
     7     4    41 1   
     8     5     6 ar  
     9     5    23 ar  
    10     6     7 1   
    11     6     9 ar  
    12     7     8 1   
    13     8    42 1   
    14     8    43 1   
    15     8    44 1   
    16     9    10 1   
    17     9    12 ar  
    18    10    11 1   
    19    11    45 1   
    20    11    46 1   
    21    11    47 1   
    22    12    13 ar  
    23    12    48 1   
    24    13    14 1   
    25    13    23 ar  
    26    14    15 1   
    27    14    49 1   
    28    14    50 1   
    29    15    16 ar  
    30    15    21 ar  
    31    16    17 ar  
    32    16    51 1   
    33    17    18 ar  
    34    18    19 1   
    35    18    20 ar  
    36    19    52 1   
    37    19    53 1   
    38    20    21 ar  
    39    21    22 1   
    40    22    54 1   
    41    22    55 1   
    42    23    56 1   
    43    24    25 1   
    44    24    33 1   
    45    25    26 2   
    46    26    27 1   
    47    26    57 1   
    48    27    28 ar  
    49    27    32 ar  
    50    28    29 ar  
    51    28    58 1   
    52    29    30 ar  
    53    29    59 1   
    54    30    31 ar  
    55    30    60 1   
    56    31    32 ar  
    57    31    61 1   
    58    32    33 1   
    59    33    34 1   
    60    33    62 1   
    61    34    35 ar  
    62    34    39 ar  
    63    35    36 ar  
    64    35    63 1   
    65    36    37 ar  
    66    36    64 1   
    67    37    38 ar  
    68    37    65 1   
    69    38    39 ar  
    70    38    66 1   
    71    39    67 1   
@<TRIPOS>SUBSTRUCTURE
     1 34R         1 TEMP              0 ****  ****    0 ROOT
