@<TRIPOS>MOLECULE
34R
   67    71     1     0     0
SMALL
bcc


@<TRIPOS>ATOM
      1 O30         -1.9820    -1.5400     1.4950 o          1 34R      -0.581100
      2 C16         -1.5960    -0.6780     0.7240 c          1 34R       0.694300
      3 C15         -0.2320    -0.6470     0.1640 ce         1 34R      -0.217200
      4 C14          0.6340    -1.6200     0.4720 cf         1 34R      -0.040200
      5 C13          2.0140    -1.6940    -0.0040 ca         1 34R      -0.050800
      6 C10          2.7090    -2.8990     0.1120 ca         1 34R       0.084100
      7 O11          2.1240    -3.9870     0.6740 os         1 34R      -0.322900
      8 C12          1.4850    -4.8600    -0.2510 c3         1 34R       0.125700
      9 C07          4.0340    -2.9960    -0.3400 ca         1 34R       0.120100
     10 O08          4.6180    -4.1950    -0.1890 os         1 34R      -0.301900
     11 C09          5.9550    -4.3520    -0.6250 c3         1 34R       0.121700
     12 C06          4.6510    -1.8800    -0.8920 ca         1 34R      -0.215000
     13 C05          3.9690    -0.6670    -0.9980 ca         1 34R      -0.061300
     14 C04          4.6560     0.5340    -1.6120 c3         1 34R       0.042200
     15 C03          4.4550     1.8070    -0.8480 ca         1 34R      -0.448900
     16 C32          3.7370     2.8680    -1.3460 ca         1 34R       0.503200
     17 N33          3.5430     4.0230    -0.7130 nb         1 34R      -0.805000
     18 C34          4.1070     4.1100     0.4920 ca         1 34R       0.934900
     19 N35          3.9780     5.2850     1.1510 nv         1 34R      -0.945500
     20 N36          4.8140     3.1570     1.0980 nb         1 34R      -0.858000
     21 C02          4.9930     2.0130     0.4450 ca         1 34R       0.758200
     22 N01          5.7330     1.0690     1.0550 nv         1 34R      -0.960500
     23 C31          2.6660    -0.5820    -0.5470 ca         1 34R      -0.130000
     24 N17         -2.4530     0.3350     0.3550 n          1 34R      -0.246800
     25 N18         -2.0230     1.2300    -0.5630 n2         1 34R      -0.434300
     26 C19         -2.7410     2.2510    -0.8190 ce         1 34R       0.388800
     27 C22         -3.9850     2.5640    -0.1460 ca         1 34R      -0.162900
     28 C40         -4.6290     3.7880    -0.3240 ca         1 34R      -0.098000
     29 C38         -5.7760     4.0740     0.3970 ca         1 34R      -0.127000
     30 C37         -6.2740     3.1420     1.3000 ca         1 34R      -0.113000
     31 C23         -5.6340     1.9220     1.4760 ca         1 34R      -0.113000
     32 C21         -4.4920     1.6260     0.7470 ca         1 34R      -0.072300
     33 C20         -3.8280     0.2770     0.8630 c6         1 34R       0.194300
     34 C24         -4.6470    -0.7760     0.1450 ca         1 34R      -0.099300
     35 C25         -5.4530    -1.6370     0.8800 ca         1 34R      -0.105500
     36 C26         -6.2550    -2.5740     0.2420 ca         1 34R      -0.131000
     37 C27         -6.2500    -2.6640    -1.1430 ca         1 34R      -0.122000
     38 C28         -5.4410    -1.8100    -1.8840 ca         1 34R      -0.131000
     39 C29         -4.6460    -0.8690    -1.2450 ca         1 34R      -0.105500
     40 H1           0.0350     0.1620    -0.4980 ha         1 34R       0.157000
     41 H2           0.3000    -2.4250     1.1160 ha         1 34R       0.160000
     42 H3           1.0530    -5.6760     0.3260 h1         1 34R       0.038033
     43 H4           0.6840    -4.3500    -0.7930 h1         1 34R       0.038033
     44 H5           2.1910    -5.2740    -0.9740 h1         1 34R       0.038033
     45 H6           6.2270    -5.3830    -0.4150 h1         1 34R       0.041700
     46 H7           6.0570    -4.1720    -1.6980 h1         1 34R       0.041700
     47 H8           6.6390    -3.6890    -0.0890 h1         1 34R       0.041700
     48 H9           5.6750    -1.9340    -1.2420 ha         1 34R       0.135000
     49 H10          5.7230     0.3190    -1.7240 hc         1 34R       0.053200
     50 H11          4.2780     0.6770    -2.6280 hc         1 34R       0.053200
     51 H12          3.2850     2.7820    -2.3320 h4         1 34R       0.013100
     52 H13          3.2790     5.9320     0.8290 hn         1 34R       0.433300
     53 H14          4.1850     5.3040     2.1350 hn         1 34R       0.433300
     54 H15          5.9910     1.2090     2.0180 hn         1 34R       0.437300
     55 H16          5.7360     0.1190     0.7270 hn         1 34R       0.437300
     56 H17          2.1470     0.3670    -0.6020 ha         1 34R       0.147000
     57 H18         -2.3430     2.9330    -1.5620 h4         1 34R       0.039800
     58 H19         -4.2210     4.5120    -1.0190 ha         1 34R       0.135000
     59 H20         -6.2780     5.0230     0.2630 ha         1 34R       0.135000
     60 H21         -7.1670     3.3640     1.8700 ha         1 34R       0.135000
     61 H22         -6.0350     1.2000     2.1770 ha         1 34R       0.138000
     62 H23         -3.7750     0.0060     1.9180 h1         1 34R       0.091700
     63 H24         -5.4520    -1.5760     1.9620 ha         1 34R       0.132500
     64 H25         -6.8760    -3.2380     0.8290 ha         1 34R       0.130500
     65 H26         -6.8680    -3.3970    -1.6450 ha         1 34R       0.129000
     66 H27         -5.4290    -1.8770    -2.9640 ha         1 34R       0.130500
     67 H28         -4.0270    -0.2120    -1.8430 ha         1 34R       0.132500
@<TRIPOS>BOND
     1     1     2 2   
     2     2     3 1   
     3     2    24 1   
     4     3     4 2   
     5     3    40 1   
     6     4     5 1   
     7     4    41 1   
     8     5     6 ar  
     9     5    23 ar  
    10     6     7 1   
    11     6     9 ar  
    12     7     8 1   
    13     8    42 1   
    14     8    43 1   
    15     8    44 1   
    16     9    10 1   
    17     9    12 ar  
    18    10    11 1   
    19    11    45 1   
    20    11    46 1   
    21    11    47 1   
    22    12    13 ar  
    23    12    48 1   
    24    13    14 1   
    25    13    23 ar  
    26    14    15 1   
    27    14    49 1   
    28    14    50 1   
    29    15    16 ar  
    30    15    21 ar  
    31    16    17 ar  
    32    16    51 1   
    33    17    18 ar  
    34    18    19 1   
    35    18    20 ar  
    36    19    52 1   
    37    19    53 1   
    38    20    21 ar  
    39    21    22 1   
    40    22    54 1   
    41    22    55 1   
    42    23    56 1   
    43    24    25 1   
    44    24    33 1   
    45    25    26 2   
    46    26    27 1   
    47    26    57 1   
    48    27    28 ar  
    49    27    32 ar  
    50    28    29 ar  
    51    28    58 1   
    52    29    30 ar  
    53    29    59 1   
    54    30    31 ar  
    55    30    60 1   
    56    31    32 ar  
    57    31    61 1   
    58    32    33 1   
    59    33    34 1   
    60    33    62 1   
    61    34    35 ar  
    62    34    39 ar  
    63    35    36 ar  
    64    35    63 1   
    65    36    37 ar  
    66    36    64 1   
    67    37    38 ar  
    68    37    65 1   
    69    38    39 ar  
    70    38    66 1   
    71    39    67 1   
@<TRIPOS>SUBSTRUCTURE
     1 34R         1 TEMP              0 ****  ****    0 ROOT
