@<TRIPOS>MOLECULE
34S
   67    71     1     0     0
SMALL
bcc


@<TRIPOS>ATOM
      1 O30          2.0600    -1.9170    -1.1520 o          1 34S      -0.583100
      2 C16          1.7030    -1.1880    -0.2410 c          1 34S       0.694300
      3 N17          2.6390    -0.4400     0.4360 n          1 34S      -0.245800
      4 N18          2.2050     0.3840     1.4160 n2         1 34S      -0.433300
      5 C19          3.0570     0.9760     2.1550 ce         1 34S       0.387800
      6 C22          4.4920     0.7970     2.0550 ca         1 34S      -0.162900
      7 C40          5.3680     1.3310     2.9990 ca         1 34S      -0.098000
      8 C38          6.7260     1.0820     2.8980 ca         1 34S      -0.127000
      9 C37          7.2080     0.2930     1.8580 ca         1 34S      -0.113000
     10 C23          6.3360    -0.2360     0.9170 ca         1 34S      -0.113000
     11 C21          4.9760     0.0190     1.0090 ca         1 34S      -0.072300
     12 C20          4.0270    -0.4910    -0.0450 c6         1 34S       0.195300
     13 C24          4.1970     0.2840    -1.3360 ca         1 34S      -0.103300
     14 C25          3.8270     1.6240    -1.4190 ca         1 34S      -0.103000
     15 C26          4.0180     2.3310    -2.5980 ca         1 34S      -0.132000
     16 C27          4.5880     1.7090    -3.7020 ca         1 34S      -0.120000
     17 C28          4.9610     0.3750    -3.6230 ca         1 34S      -0.132000
     18 C29          4.7600    -0.3340    -2.4450 ca         1 34S      -0.103000
     19 C15          0.2970    -1.0710     0.1920 ce         1 34S      -0.216200
     20 C14         -0.6400    -1.8190    -0.4020 cf         1 34S      -0.041200
     21 C13         -2.0660    -1.7900    -0.0850 ca         1 34S      -0.048800
     22 C10         -2.8850    -2.8220    -0.5470 ca         1 34S       0.084100
     23 O11         -2.3690    -3.8320    -1.2940 os         1 34S      -0.323900
     24 C12         -2.0170    -4.9980    -0.5580 c3         1 34S       0.126700
     25 C07         -4.2590    -2.8180    -0.2600 ca         1 34S       0.119100
     26 O08         -4.9610    -3.8540    -0.7450 os         1 34S      -0.302900
     27 C09         -6.3490    -3.9110    -0.4790 c3         1 34S       0.122700
     28 C06         -4.8000    -1.7710     0.4750 ca         1 34S      -0.215000
     29 C05         -3.9930    -0.7260     0.9250 ca         1 34S      -0.063300
     30 C04         -4.6040     0.4120     1.7150 c3         1 34S       0.042200
     31 C03         -4.1650     1.7700     1.2570 ca         1 34S      -0.444900
     32 C32         -3.4160     2.6140     2.0430 ca         1 34S       0.502200
     33 N33         -3.0060     3.8290     1.6850 nb         1 34S      -0.802000
     34 C34         -3.3730     4.2130     0.4630 ca         1 34S       0.929900
     35 N35         -3.0130     5.4610     0.0720 nv         1 34S      -0.938500
     36 N36         -4.0890     3.4970    -0.4030 nb         1 34S      -0.854000
     37 C02         -4.4880     2.2870    -0.0210 ca         1 34S       0.751200
     38 N01         -5.2430     1.5890    -0.8910 nv         1 34S      -0.952500
     39 C31         -2.6410    -0.7400     0.6400 ca         1 34S      -0.130000
     40 H1           2.6480     1.6170     2.9270 h4         1 34S       0.039800
     41 H2           4.9790     1.9300     3.8130 ha         1 34S       0.135000
     42 H3           7.4080     1.4940     3.6290 ha         1 34S       0.135000
     43 H4           8.2680     0.0910     1.7800 ha         1 34S       0.135000
     44 H5           6.7210    -0.8410     0.1040 ha         1 34S       0.139000
     45 H6           4.2640    -1.5380    -0.2430 h1         1 34S       0.089700
     46 H7           3.3870     2.1290    -0.5670 ha         1 34S       0.133500
     47 H8           3.7240     3.3720    -2.6540 ha         1 34S       0.130500
     48 H9           4.7400     2.2630    -4.6190 ha         1 34S       0.129000
     49 H10          5.4010    -0.1180    -4.4800 ha         1 34S       0.130500
     50 H11          5.0420    -1.3780    -2.3900 ha         1 34S       0.133500
     51 H12          0.0590    -0.3860     0.9920 ha         1 34S       0.157000
     52 H13         -0.3330    -2.5110    -1.1770 ha         1 34S       0.161000
     53 H14         -1.2540    -4.7800     0.1940 h1         1 34S       0.038033
     54 H15         -2.8820    -5.4440    -0.0640 h1         1 34S       0.038033
     55 H16         -1.6120    -5.7140    -1.2710 h1         1 34S       0.038033
     56 H17         -6.5560    -3.9590     0.5930 h1         1 34S       0.042033
     57 H18         -6.8810    -3.0560    -0.9030 h1         1 34S       0.042033
     58 H19         -6.7150    -4.8200    -0.9480 h1         1 34S       0.042033
     59 H20         -5.8590    -1.7470     0.7040 ha         1 34S       0.136000
     60 H21         -5.6940     0.3280     1.6760 hc         1 34S       0.053700
     61 H22         -4.3350     0.2990     2.7690 hc         1 34S       0.053700
     62 H23         -3.1230     2.2860     3.0370 h4         1 34S       0.013100
     63 H24         -2.2800     5.9140     0.5890 hn         1 34S       0.429800
     64 H25         -3.0500     5.6710    -0.9110 hn         1 34S       0.429800
     65 H26         -5.3130     1.9310    -1.8350 hn         1 34S       0.433800
     66 H27         -5.3640     0.5980    -0.7780 hn         1 34S       0.433800
     67 H28         -2.0260     0.0880     0.9680 ha         1 34S       0.147000
@<TRIPOS>BOND
     1     1     2 2   
     2     2     3 1   
     3     2    19 1   
     4     3     4 1   
     5     3    12 1   
     6     4     5 2   
     7     5     6 1   
     8     5    40 1   
     9     6     7 ar  
    10     6    11 ar  
    11     7     8 ar  
    12     7    41 1   
    13     8     9 ar  
    14     8    42 1   
    15     9    10 ar  
    16     9    43 1   
    17    10    11 ar  
    18    10    44 1   
    19    11    12 1   
    20    12    13 1   
    21    12    45 1   
    22    13    14 ar  
    23    13    18 ar  
    24    14    15 ar  
    25    14    46 1   
    26    15    16 ar  
    27    15    47 1   
    28    16    17 ar  
    29    16    48 1   
    30    17    18 ar  
    31    17    49 1   
    32    18    50 1   
    33    19    20 2   
    34    19    51 1   
    35    20    21 1   
    36    20    52 1   
    37    21    22 ar  
    38    21    39 ar  
    39    22    23 1   
    40    22    25 ar  
    41    23    24 1   
    42    24    53 1   
    43    24    54 1   
    44    24    55 1   
    45    25    26 1   
    46    25    28 ar  
    47    26    27 1   
    48    27    56 1   
    49    27    57 1   
    50    27    58 1   
    51    28    29 ar  
    52    28    59 1   
    53    29    30 1   
    54    29    39 ar  
    55    30    31 1   
    56    30    60 1   
    57    30    61 1   
    58    31    32 ar  
    59    31    37 ar  
    60    32    33 ar  
    61    32    62 1   
    62    33    34 ar  
    63    34    35 1   
    64    34    36 ar  
    65    35    63 1   
    66    35    64 1   
    67    36    37 ar  
    68    37    38 1   
    69    38    65 1   
    70    38    66 1   
    71    39    67 1   
@<TRIPOS>SUBSTRUCTURE
     1 34S         1 TEMP              0 ****  ****    0 ROOT
