@<TRIPOS>MOLECULE
34S
   67    71     1     0     0
SMALL
No Charge or Current Charge


@<TRIPOS>ATOM
      1 O30          2.2790    -2.2490    -0.6440 o          1 34S      -0.583100
      2 C16          1.8630    -1.2230    -0.1160 c          1 34S       0.627300
      3 N17          2.7490    -0.1580     0.2200 n          1 34S      -0.178800
      4 N18          2.3050     1.0140     0.8350 n2         1 34S      -0.433300
      5 C19          2.9760     1.5500     1.8110 ce         1 34S       0.387800
      6 C22          4.4300     1.2660     1.9680 ca         1 34S      -0.162900
      7 C40          5.1860     1.8680     2.9920 ca         1 34S      -0.080000
      8 C38          6.5600     1.5920     3.1060 ca         1 34S      -0.109000
      9 C37          7.1820     0.7190     2.1970 ca         1 34S      -0.095000
     10 C23          6.4300     0.1190     1.1720 ca         1 34S      -0.095000
     11 C21          5.0540     0.3910     1.0550 ca         1 34S      -0.072300
     12 C20          4.2150    -0.2550    -0.0580 c6         1 34S       0.195300
     13 C24          4.5600     0.3110    -1.4430 ca         1 34S      -0.103300
     14 C25          4.6090     1.7040    -1.6620 ca         1 34S      -0.085000
     15 C26          4.9250     2.2120    -2.9330 ca         1 34S      -0.114000
     16 C27          5.1930     1.3340    -3.9960 ca         1 34S      -0.102000
     17 C28          5.1430    -0.0550    -3.7870 ca         1 34S      -0.114000
     18 C29          4.8270    -0.5650    -2.5150 ca         1 34S      -0.085000
     19 C15          0.4030    -1.0690     0.1900 ce         1 34S      -0.266200
     20 C14         -0.5500    -2.0140    -0.0820 cf         1 34S      -0.091200
     21 C13         -2.0140    -1.9810     0.1780 ca         1 34S      -0.048800
     22 C10         -2.8710    -2.9820    -0.3570 ca         1 34S       0.084100
     23 O11         -2.2630    -3.9700    -1.1320 os         1 34S      -0.347100
     24 C12         -2.9440    -5.0660    -1.7690 c3         1 34S       0.149900
     25 C07         -4.2770    -2.9230    -0.0860 ca         1 34S       0.119100
     26 O08         -5.1380    -3.8850    -0.5920 os         1 34S      -0.326100
     27 C09         -6.5570    -3.8840    -0.3500 c3         1 34S       0.145900
     28 C06         -4.7870    -1.8690     0.7070 ca         1 34S      -0.197000
     29 C05         -3.9360    -0.8850     1.2310 ca         1 34S      -0.063300
     30 C04         -4.4940     0.2500     2.0860 c3         1 34S       0.042200
     31 C03         -4.1430     1.6260     1.5210 ca         1 34S      -0.314300
     32 C32         -3.2720     2.4860     2.2160 ca         1 34S       0.173900
     33 N33         -2.9520     3.7040     1.7400 nb         1 34S      -0.276000
     34 C34         -3.5120     4.0430     0.5710 ca         1 34S       0.403900
     35 N35         -3.1930     5.2650     0.0870 nv         1 34S      -1.048900
     36 N36         -4.3460     3.3160    -0.1790 nb         1 34S      -0.328000
     37 C02         -4.6540     2.1100     0.3060 ca         1 34S       0.422900
     38 N01         -5.4890     1.3800    -0.4700 nv         1 34S      -1.062900
     39 C31         -2.5610    -0.9500     0.9680 ca         1 34S      -0.112000
     40 H1           2.5280     2.2950     2.4730 h4         1 34S       0.039800
     41 H2           4.7130     2.5480     3.6980 ha         1 34S       0.117000
     42 H3           7.1430     2.0570     3.8980 ha         1 34S       0.117000
     43 H4           8.2450     0.5080     2.2860 ha         1 34S       0.117000
     44 H5           6.9160    -0.5540     0.4690 ha         1 34S       0.121000
     45 H6           4.4880    -1.3190    -0.0560 h1         1 34S       0.089700
     46 H7           4.4020     2.3930    -0.8470 ha         1 34S       0.115500
     47 H8           4.9620     3.2870    -3.0940 ha         1 34S       0.112500
     48 H9           5.4380     1.7270    -4.9800 ha         1 34S       0.111000
     49 H10          5.3480    -0.7360    -4.6090 ha         1 34S       0.112500
     50 H11          4.7880    -1.6420    -2.3660 ha         1 34S       0.115500
     51 H12          0.1090    -0.1320     0.6480 ha         1 34S       0.207000
     52 H13         -0.1940    -2.9330    -0.5520 ha         1 34S       0.211000
     53 H14         -3.4430    -5.7040    -1.0280 h1         1 34S       0.038033
     54 H15         -3.6860    -4.7010    -2.4920 h1         1 34S       0.038033
     55 H16         -2.2250    -5.6890    -2.3160 h1         1 34S       0.038033
     56 H17         -6.7700    -3.9590     0.7240 h1         1 34S       0.042033
     57 H18         -7.0200    -2.9690    -0.7410 h1         1 34S       0.042033
     58 H19         -7.0270    -4.7410    -0.8480 h1         1 34S       0.042033
     59 H20         -5.8470    -1.8020     0.9320 ha         1 34S       0.118000
     60 H21         -5.5830     0.1610     2.1840 hc         1 34S       0.053700
     61 H22         -4.1060     0.1500     3.1070 hc         1 34S       0.053700
     62 H23         -2.8240     2.1990     3.1660 h4         1 34S       0.013100
     63 H24         -2.4020     5.7550     0.4970 hn         1 34S       0.485000
     64 H25         -3.4120     5.4740    -0.8840 hn         1 34S       0.485000
     65 H26         -5.6320     1.6970    -1.4250 hn         1 34S       0.489000
     66 H27         -5.4940     0.3750    -0.3260 hn         1 34S       0.489000
     67 H28         -1.9200    -0.1850     1.3950 ha         1 34S       0.129000
@<TRIPOS>BOND
     1     1     2 2   
     2     2     3 1   
     3     2    19 1   
     4     3     4 1   
     5     3    12 1   
     6     4     5 2   
     7     5     6 1   
     8     5    40 1   
     9     6     7 ar  
    10     6    11 ar  
    11     7     8 ar  
    12     7    41 1   
    13     8     9 ar  
    14     8    42 1   
    15     9    10 ar  
    16     9    43 1   
    17    10    11 ar  
    18    10    44 1   
    19    11    12 1   
    20    12    13 1   
    21    12    45 1   
    22    13    14 ar  
    23    13    18 ar  
    24    14    15 ar  
    25    14    46 1   
    26    15    16 ar  
    27    15    47 1   
    28    16    17 ar  
    29    16    48 1   
    30    17    18 ar  
    31    17    49 1   
    32    18    50 1   
    33    19    20 2   
    34    19    51 1   
    35    20    21 1   
    36    20    52 1   
    37    21    22 ar  
    38    21    39 ar  
    39    22    23 1   
    40    22    25 ar  
    41    23    24 1   
    42    24    53 1   
    43    24    54 1   
    44    24    55 1   
    45    25    26 1   
    46    25    28 ar  
    47    26    27 1   
    48    27    56 1   
    49    27    57 1   
    50    27    58 1   
    51    28    29 ar  
    52    28    59 1   
    53    29    30 1   
    54    29    39 ar  
    55    30    31 1   
    56    30    60 1   
    57    30    61 1   
    58    31    32 ar  
    59    31    37 ar  
    60    32    33 ar  
    61    32    62 1   
    62    33    34 ar  
    63    34    35 1   
    64    34    36 ar  
    65    35    63 1   
    66    35    64 1   
    67    36    37 ar  
    68    37    38 1   
    69    38    65 1   
    70    38    66 1   
    71    39    67 1   
@<TRIPOS>SUBSTRUCTURE
     1 34S         1 TEMP              0 ****  ****    0 ROOT
