@<TRIPOS>MOLECULE
34T
   27    28     1     0     0
SMALL
No Charge or Current Charge


@<TRIPOS>ATOM
      1 S            2.4590     0.7700     0.3080 sy         1 34T       0.921700
      2 HS           2.4580     1.0060     1.6620 hs         1 34T       0.080800
      3 O1           3.7600     0.1710    -0.0300 o          1 34T      -0.529500
      4 C1          -2.0000     1.5670     0.5510 c6         1 34T       0.229800
      5 C2          -2.9500     0.6550    -0.2570 c6         1 34T      -0.084700
      6 C3          -2.6700    -0.8330     0.0850 c6         1 34T      -0.021100
      7 C4          -1.1710    -1.1700     0.0550 ca         1 34T      -0.176300
      8 C5          -0.7750    -2.5130    -0.0640 ca         1 34T      -0.009000
      9 C6           0.5870    -2.8420    -0.0880 ca         1 34T      -0.182000
     10 C7           1.5600    -1.8370     0.0100 ca         1 34T       0.022000
     11 C8           1.1740    -0.4840     0.1300 ca         1 34T      -0.368500
     12 C9          -0.1920    -0.1530     0.1570 ca         1 34T       0.438000
     13 N           -0.6140     1.1670     0.2660 nu         1 34T      -0.975200
     14 HN           0.0890     1.8810     0.0560 hn         1 34T       0.511000
     15 H1          -2.1660     2.6240     0.2910 h1         1 34T       0.049700
     16 H1A         -2.2150     1.4490     1.6240 h1         1 34T       0.049700
     17 H2          -2.7490     0.8100    -1.3270 hc         1 34T       0.064700
     18 H3          -3.0620    -1.0610     1.0860 hc         1 34T       0.051700
     19 H3A         -3.2170    -1.4790    -0.6150 hc         1 34T       0.051700
     20 H5          -1.5210    -3.3020    -0.1380 ha         1 34T       0.111000
     21 H6           0.8910    -3.8830    -0.1790 ha         1 34T       0.123000
     22 H7           2.6120    -2.1210    -0.0010 ha         1 34T       0.141000
     23 H10A        -5.1020     0.3930    -0.6340 hc         1 34T       0.039033
     24 H10B        -4.7290     0.9100     1.0190 hc         1 34T       0.039033
     25 O2           2.0080     2.0160    -0.3350 o          1 34T      -0.529500
     26 C10         -4.4400     1.0280    -0.0330 c3         1 34T      -0.087100
     27 H10         -4.6340     2.0690    -0.3170 hc         1 34T       0.039033
@<TRIPOS>BOND
     1     1     2 1   
     2     1     3 2   
     3     1    11 1   
     4     1    25 2   
     5     4     5 1   
     6     4    13 1   
     7     4    15 1   
     8     4    16 1   
     9     5     6 1   
    10     5    17 1   
    11     5    26 1   
    12     6     7 1   
    13     6    18 1   
    14     6    19 1   
    15     7     8 ar  
    16     7    12 ar  
    17     8     9 ar  
    18     8    20 1   
    19     9    10 ar  
    20     9    21 1   
    21    10    11 ar  
    22    10    22 1   
    23    11    12 ar  
    24    12    13 1   
    25    13    14 1   
    26    23    26 1   
    27    24    26 1   
    28    26    27 1   
@<TRIPOS>SUBSTRUCTURE
     1 34T         1 TEMP              0 ****  ****    0 ROOT
