@<TRIPOS>MOLECULE
34T
   27    28     1     0     0
SMALL
abcg2


@<TRIPOS>ATOM
      1 S            2.4100     0.7080     0.3320 sy         1 34T       0.921700
      2 HS           2.2810     1.0410     1.6410 hs         1 34T       0.080800
      3 O1           3.7110     0.0730     0.1520 o          1 34T      -0.529500
      4 C1          -2.0120     1.5470     0.5170 c6         1 34T       0.229800
      5 C2          -2.9280     0.6160    -0.2620 c6         1 34T      -0.084700
      6 C3          -2.6430    -0.8140     0.1820 c6         1 34T      -0.021100
      7 C4          -1.1790    -1.1500     0.0980 ca         1 34T      -0.176300
      8 C5          -0.7610    -2.4510    -0.0990 ca         1 34T      -0.009000
      9 C6           0.5850    -2.8010    -0.1850 ca         1 34T      -0.182000
     10 C7           1.5350    -1.8120    -0.0670 ca         1 34T       0.022000
     11 C8           1.1420    -0.4870     0.1210 ca         1 34T      -0.368500
     12 C9          -0.2200    -0.1150     0.2010 ca         1 34T       0.438000
     13 N           -0.6210     1.1650     0.3910 nu         1 34T      -0.975200
     14 HN           0.0350     1.9070     0.2190 hn         1 34T       0.511000
     15 H1          -2.1070     2.5710     0.1550 h1         1 34T       0.049700
     16 H1A         -2.3150     1.5530     1.5710 h1         1 34T       0.049700
     17 H2          -2.6850     0.7070    -1.3260 hc         1 34T       0.064700
     18 H3          -2.9920    -0.9400     1.2140 hc         1 34T       0.051700
     19 H3A         -3.2140    -1.5220    -0.4220 hc         1 34T       0.051700
     20 H5          -1.5170    -3.2230    -0.1920 ha         1 34T       0.111000
     21 H6           0.8790    -3.8300    -0.3380 ha         1 34T       0.123000
     22 H7           2.5860    -2.0600    -0.1180 ha         1 34T       0.141000
     23 H10A        -5.0460     0.3310    -0.6210 hc         1 34T       0.039033
     24 H10B        -4.6670     0.9130     0.9990 hc         1 34T       0.039033
     25 O2           2.1050     1.9090    -0.4490 o          1 34T      -0.529500
     26 C10         -4.3870     0.9900    -0.0540 c3         1 34T      -0.087100
     27 H10         -4.5850     2.0130    -0.3780 hc         1 34T       0.039033
@<TRIPOS>BOND
     1     1     2 1   
     2     1     3 2   
     3     1    11 1   
     4     1    25 2   
     5     4     5 1   
     6     4    13 1   
     7     4    15 1   
     8     4    16 1   
     9     5     6 1   
    10     5    17 1   
    11     5    26 1   
    12     6     7 1   
    13     6    18 1   
    14     6    19 1   
    15     7     8 ar  
    16     7    12 ar  
    17     8     9 ar  
    18     8    20 1   
    19     9    10 ar  
    20     9    21 1   
    21    10    11 ar  
    22    10    22 1   
    23    11    12 ar  
    24    12    13 1   
    25    13    14 1   
    26    23    26 1   
    27    24    26 1   
    28    26    27 1   
@<TRIPOS>SUBSTRUCTURE
     1 34T         1 TEMP              0 ****  ****    0 ROOT
