@<TRIPOS>MOLECULE
34U
   58    62     1     0     0
SMALL
No Charge or Current Charge


@<TRIPOS>ATOM
      1 C01          8.4590    -1.2940     0.4140 c3         1 34U       0.144900
      2 O02          7.0480    -1.1280     0.2010 os         1 34U      -0.439000
      3 C03          6.6980    -0.5680    -1.0810 c3         1 34U       0.157600
      4 C04          5.1610    -0.4380    -1.1740 c3         1 34U       0.165600
      5 O05          4.7300     0.6180    -0.2910 os         1 34U      -0.337100
      6 C06          3.4030     0.9730    -0.1610 ca         1 34U       0.128100
      7 C07          3.0900     2.0170     0.7360 ca         1 34U      -0.098000
      8 C08          1.7500     2.3980     0.8860 ca         1 34U       0.096400
      9 C09          0.7680     1.7680     0.1750 ca         1 34U      -0.089200
     10 C10          1.0240     0.7270    -0.7280 ca         1 34U      -0.050000
     11 C11          2.3680     0.3280    -0.8930 ca         1 34U      -0.188000
     12 N12         -0.3900     2.3780     0.5480 na         1 34U      -0.198100
     13 C13         -0.1020     3.3510     1.4970 cc         1 34U       0.434700
     14 N14          1.2320     3.3950     1.7180 nd         1 34U      -0.565100
     15 C15         -1.6880     2.0180     0.2060 ca         1 34U       0.476500
     16 N16         -2.1060     0.7330     0.2150 nb         1 34U      -0.689000
     17 C17         -3.3880     0.4040    -0.1200 ca         1 34U       0.298000
     18 C18         -4.3130     1.4190    -0.4860 ca         1 34U      -0.086000
     19 C19         -5.6360     1.1040    -0.8410 ca         1 34U      -0.107000
     20 C20         -6.0660    -0.2280    -0.8430 ca         1 34U      -0.086000
     21 C21         -5.1730    -1.2500    -0.4920 ca         1 34U      -0.158000
     22 C22         -3.8400    -0.9630    -0.1300 ca         1 34U       0.293000
     23 N23         -2.9850    -2.0580     0.2120 nh         1 34U      -0.760400
     24 C24         -2.4100    -2.1730     1.5790 c6         1 34U       0.191300
     25 C25         -0.9820    -2.7640     1.5250 c6         1 34U      -0.096400
     26 C26         -0.9810    -4.1160     0.7760 c6         1 34U       0.153500
     27 C27         -1.5860    -3.9450    -0.6370 c6         1 34U      -0.096400
     28 C28         -3.0050    -3.3300    -0.5580 c6         1 34U       0.191300
     29 N29          0.3870    -4.6670     0.6960 n8         1 34U      -0.985200
     30 C30         -3.8960     2.7590    -0.5000 ca         1 34U      -0.045000
     31 C31         -2.5720     3.0540    -0.1520 ca         1 34U      -0.175000
     32 H1           8.6470    -1.7230     1.4060 h1         1 34U       0.028700
     33 H2           8.8900    -1.9680    -0.3380 h1         1 34U       0.028700
     34 H3           8.9790    -0.3290     0.3540 h1         1 34U       0.028700
     35 H4           7.1580     0.4200    -1.2190 h1         1 34U       0.030700
     36 H5           7.0480    -1.2230    -1.8900 h1         1 34U       0.030700
     37 H6           4.8890    -0.2020    -2.2100 h1         1 34U       0.040200
     38 H7           4.6960    -1.3950    -0.9020 h1         1 34U       0.040200
     39 H8           3.8720     2.5150     1.3000 ha         1 34U       0.144000
     40 H9           0.2200     0.2440    -1.2800 ha         1 34U       0.153000
     41 H10          2.5850    -0.4780    -1.5880 ha         1 34U       0.112000
     42 H11         -0.8610     3.9570     1.9760 h5         1 34U       0.060800
     43 H12         -6.3340     1.8920    -1.1180 ha         1 34U       0.119000
     44 H13         -7.0910    -0.4690    -1.1160 ha         1 34U       0.117000
     45 H14         -5.5260    -2.2770    -0.4910 ha         1 34U       0.118000
     46 H15         -2.3740    -1.1930     2.0760 h1         1 34U       0.039950
     47 H16         -3.0490    -2.8230     2.1970 h1         1 34U       0.039950
     48 H17         -0.3140    -2.0490     1.0230 hc         1 34U       0.053200
     49 H18         -0.5990    -2.8930     2.5460 hc         1 34U       0.053200
     50 H19         -1.5970    -4.8350     1.3410 h1         1 34U       0.057700
     51 H20         -0.9450    -3.2940    -1.2470 hc         1 34U       0.053200
     52 H21         -1.6370    -4.9130    -1.1520 hc         1 34U       0.053200
     53 H22         -3.6890    -4.0480    -0.0810 h1         1 34U       0.039950
     54 H23         -3.3700    -3.1540    -1.5810 h1         1 34U       0.039950
     55 H24          0.3660    -5.5240     0.1320 hn         1 34U       0.390000
     56 H25          0.9640    -4.0270     0.1380 hn         1 34U       0.390000
     57 H27         -4.5820     3.5560    -0.7800 ha         1 34U       0.124000
     58 H28         -2.2310     4.0850    -0.1700 ha         1 34U       0.131000
@<TRIPOS>BOND
     1     1     2 1   
     2     1    32 1   
     3     1    33 1   
     4     1    34 1   
     5     2     3 1   
     6     3     4 1   
     7     3    35 1   
     8     3    36 1   
     9     4     5 1   
    10     4    37 1   
    11     4    38 1   
    12     5     6 1   
    13     6     7 ar  
    14     6    11 ar  
    15     7     8 ar  
    16     7    39 1   
    17     8     9 ar  
    18     8    14 1   
    19     9    10 ar  
    20     9    12 1   
    21    10    11 ar  
    22    10    40 1   
    23    11    41 1   
    24    12    13 1   
    25    12    15 1   
    26    13    14 2   
    27    13    42 1   
    28    15    16 ar  
    29    15    31 ar  
    30    16    17 ar  
    31    17    18 ar  
    32    17    22 ar  
    33    18    19 ar  
    34    18    30 ar  
    35    19    20 ar  
    36    19    43 1   
    37    20    21 ar  
    38    20    44 1   
    39    21    22 ar  
    40    21    45 1   
    41    22    23 1   
    42    23    24 1   
    43    23    28 1   
    44    24    25 1   
    45    24    46 1   
    46    24    47 1   
    47    25    26 1   
    48    25    48 1   
    49    25    49 1   
    50    26    27 1   
    51    26    29 1   
    52    26    50 1   
    53    27    28 1   
    54    27    51 1   
    55    27    52 1   
    56    28    53 1   
    57    28    54 1   
    58    29    55 1   
    59    29    56 1   
    60    30    31 ar  
    61    30    57 1   
    62    31    58 1   
@<TRIPOS>SUBSTRUCTURE
     1 34U         1 TEMP              0 ****  ****    0 ROOT
