@<TRIPOS>MOLECULE
34U
   58    62     1     0     0
SMALL
bcc


@<TRIPOS>ATOM
      1 C01          8.2070    -1.0660     0.5980 c3         1 34U       0.121700
      2 O02          6.8110    -0.9140     0.5770 os         1 34U      -0.392600
      3 C03          6.2710    -1.0900    -0.7050 c3         1 34U       0.134400
      4 C04          4.7770    -0.9020    -0.6590 c3         1 34U       0.142400
      5 O05          4.5060     0.4400    -0.3020 os         1 34U      -0.313900
      6 C06          3.2230     0.8390    -0.1680 ca         1 34U       0.128100
      7 C07          3.0340     2.1350     0.2960 ca         1 34U      -0.116000
      8 C08          1.7320     2.5900     0.4520 ca         1 34U       0.096400
      9 C09          0.6370     1.7660     0.1550 ca         1 34U      -0.089200
     10 C10          0.8180     0.4740    -0.3140 ca         1 34U      -0.068000
     11 C11          2.1200     0.0240    -0.4710 ca         1 34U      -0.206000
     12 N12         -0.4780     2.5530     0.4190 na         1 34U      -0.198100
     13 C13          0.0060     3.7580     0.8540 cc         1 34U       0.434700
     14 N14          1.2980     3.8240     0.8890 nd         1 34U      -0.565100
     15 C15         -1.8240     2.1940     0.2790 ca         1 34U       0.541800
     16 N16         -2.0690     0.9270     0.1450 nb         1 34U      -0.689000
     17 C17         -3.3370     0.5040    -0.0330 ca         1 34U       0.428600
     18 C18         -4.4200     1.4150    -0.0750 ca         1 34U      -0.151300
     19 C19         -5.7300     0.9580    -0.3230 ca         1 34U      -0.125000
     20 C20         -5.9420    -0.3770    -0.5300 ca         1 34U      -0.104000
     21 C21         -4.8760    -1.2940    -0.4680 ca         1 34U      -0.176000
     22 C22         -3.5800    -0.8940    -0.2120 ca         1 34U       0.089300
     23 N23         -2.5010    -1.7870    -0.1670 nh         1 34U      -0.622000
     24 C24         -1.9320    -1.9870     1.1660 c6         1 34U       0.191300
     25 C25         -0.6070    -2.7310     1.1070 c6         1 34U      -0.096400
     26 C26         -0.7210    -4.0410     0.3410 c6         1 34U       0.153500
     27 C27         -1.3570    -3.7640    -1.0190 c6         1 34U      -0.096400
     28 C28         -2.6890    -3.0460    -0.8660 c6         1 34U       0.191300
     29 N29          0.5760    -4.7000     0.2880 n8         1 34U      -0.874800
     30 C30         -4.1140     2.7850     0.0930 ca         1 34U      -0.063000
     31 C31         -2.8270     3.1930     0.2660 ca         1 34U      -0.258300
     32 H1           8.5480    -0.9050     1.6200 h1         1 34U       0.028700
     33 H2           8.5180    -2.0690     0.2830 h1         1 34U       0.028700
     34 H3           8.7090    -0.3390    -0.0530 h1         1 34U       0.028700
     35 H4           6.7150    -0.3870    -1.4250 h1         1 34U       0.030700
     36 H5           6.4690    -2.1010    -1.0880 h1         1 34U       0.030700
     37 H6           4.3680    -1.1410    -1.6460 h1         1 34U       0.040200
     38 H7           4.3300    -1.5940     0.0650 h1         1 34U       0.040200
     39 H8           3.8800     2.7710     0.5280 ha         1 34U       0.162000
     40 H9          -0.0180    -0.1710    -0.5390 ha         1 34U       0.171000
     41 H10          2.2640    -0.9840    -0.8360 ha         1 34U       0.130000
     42 H11         -0.6530     4.5600     1.1500 h5         1 34U       0.060800
     43 H12         -6.5450     1.6690    -0.3610 ha         1 34U       0.137000
     44 H13         -6.9380    -0.7460    -0.7330 ha         1 34U       0.135000
     45 H14         -5.0990    -2.3410    -0.6200 ha         1 34U       0.136000
     46 H15         -1.7840    -1.0190     1.6410 h1         1 34U       0.039950
     47 H16         -2.6380    -2.5560     1.7930 h1         1 34U       0.039950
     48 H17          0.1430    -2.0960     0.6240 hc         1 34U       0.053200
     49 H18         -0.2600    -2.9170     2.1260 hc         1 34U       0.053200
     50 H19         -1.3980    -4.7000     0.8990 h1         1 34U       0.057700
     51 H20         -0.6800    -3.1490    -1.6210 hc         1 34U       0.053200
     52 H21         -1.5160    -4.7010    -1.5600 hc         1 34U       0.053200
     53 H22         -3.3920    -3.7110    -0.3360 h1         1 34U       0.039950
     54 H23         -3.1200    -2.8460    -1.8480 h1         1 34U       0.039950
     55 H24          0.4920    -5.5710    -0.2240 hn         1 34U       0.334800
     56 H25          1.2170    -4.1300    -0.2540 hn         1 34U       0.334800
     57 H27         -4.9130     3.5150     0.0640 ha         1 34U       0.142000
     58 H28         -2.5940     4.2440     0.3610 ha         1 34U       0.149000
@<TRIPOS>BOND
     1     1     2 1   
     2     1    32 1   
     3     1    33 1   
     4     1    34 1   
     5     2     3 1   
     6     3     4 1   
     7     3    35 1   
     8     3    36 1   
     9     4     5 1   
    10     4    37 1   
    11     4    38 1   
    12     5     6 1   
    13     6     7 ar  
    14     6    11 ar  
    15     7     8 ar  
    16     7    39 1   
    17     8     9 ar  
    18     8    14 1   
    19     9    10 ar  
    20     9    12 1   
    21    10    11 ar  
    22    10    40 1   
    23    11    41 1   
    24    12    13 1   
    25    12    15 1   
    26    13    14 2   
    27    13    42 1   
    28    15    16 ar  
    29    15    31 ar  
    30    16    17 ar  
    31    17    18 ar  
    32    17    22 ar  
    33    18    19 ar  
    34    18    30 ar  
    35    19    20 ar  
    36    19    43 1   
    37    20    21 ar  
    38    20    44 1   
    39    21    22 ar  
    40    21    45 1   
    41    22    23 1   
    42    23    24 1   
    43    23    28 1   
    44    24    25 1   
    45    24    46 1   
    46    24    47 1   
    47    25    26 1   
    48    25    48 1   
    49    25    49 1   
    50    26    27 1   
    51    26    29 1   
    52    26    50 1   
    53    27    28 1   
    54    27    51 1   
    55    27    52 1   
    56    28    53 1   
    57    28    54 1   
    58    29    55 1   
    59    29    56 1   
    60    30    31 ar  
    61    30    57 1   
    62    31    58 1   
@<TRIPOS>SUBSTRUCTURE
     1 34U         1 TEMP              0 ****  ****    0 ROOT
