@<TRIPOS>MOLECULE
34V
   20    20     1     0     0
SMALL
No Charge or Current Charge


@<TRIPOS>ATOM
      1 C1         -11.2250   -16.1920   -45.2360 c3         1 34V       0.185600
      2 O1         -10.9650   -15.5030   -43.9890 oh         1 34V      -0.696000
      3 C2         -12.2170   -17.4040   -45.0730 c5         1 34V       0.405000
      4 O2         -11.5940   -18.4280   -44.2990 oh         1 34V      -0.682000
      5 C3         -13.6470   -17.0310   -44.5190 c5         1 34V       0.076300
      6 O3         -14.2430   -15.8520   -45.1240 oh         1 34V      -0.681000
      7 C4         -14.4520   -18.3070   -44.9370 c5         1 34V       0.097300
      8 O4         -15.7980   -17.9190   -45.2140 oh         1 34V      -0.704000
      9 C5         -13.6700   -18.8300   -46.1960 c5         1 34V       0.157600
     10 O5         -12.5280   -17.9510   -46.3600 os         1 34V      -0.474000
     11 H11        -11.6450   -15.4940   -45.9720 h1         1 34V       0.039200
     12 H12        -10.2840   -16.5710   -45.6590 h1         1 34V       0.039200
     13 HO1        -10.2470   -14.8510   -44.1640 ho         1 34V       0.502000
     14 HO2        -10.8800   -18.7790   -44.8720 ho         1 34V       0.501000
     15 H3         -13.6260   -16.9210   -43.4260 h1         1 34V       0.038700
     16 HO3        -13.7520   -15.0690   -44.7750 ho         1 34V       0.506000
     17 H4         -14.4240   -19.0630   -44.1390 h1         1 34V       0.050700
     18 HO4        -15.6930   -16.9380   -45.3390 ho         1 34V       0.517000
     19 H51        -14.2760   -18.8090   -47.1120 h1         1 34V       0.060700
     20 H52        -13.3140   -19.8570   -46.0400 h1         1 34V       0.060700
@<TRIPOS>BOND
     1     1     2 1   
     2     1     3 1   
     3     1    11 1   
     4     1    12 1   
     5     2    13 1   
     6     3     4 1   
     7     3     5 1   
     8     3    10 1   
     9     4    14 1   
    10     5     6 1   
    11     5     7 1   
    12     5    15 1   
    13     6    16 1   
    14     7     8 1   
    15     7     9 1   
    16     7    17 1   
    17     8    18 1   
    18     9    10 1   
    19     9    19 1   
    20     9    20 1   
@<TRIPOS>SUBSTRUCTURE
     1 34V         1 TEMP              0 ****  ****    0 ROOT
