@<TRIPOS>MOLECULE
34V
   20    20     1     0     0
SMALL
bcc


@<TRIPOS>ATOM
      1 C1         -11.7660   -16.0430   -45.8100 c3         1 34V       0.162400
      2 O1         -11.1790   -15.1560   -44.8930 oh         1 34V      -0.573800
      3 C2         -12.0170   -17.4080   -45.1690 c5         1 34V       0.358600
      4 O2         -10.8250   -17.7840   -44.5620 oh         1 34V      -0.559800
      5 C3         -13.2380   -17.5060   -44.2180 c5         1 34V       0.053100
      6 O3         -13.5190   -16.2930   -43.5810 oh         1 34V      -0.558800
      7 C4         -14.3660   -18.0160   -45.1160 c5         1 34V       0.074100
      8 O4         -14.9590   -16.9820   -45.8610 oh         1 34V      -0.581800
      9 C5         -13.5800   -18.9300   -46.0270 c5         1 34V       0.134400
     10 O5         -12.3340   -18.2820   -46.2360 os         1 34V      -0.427600
     11 H11        -12.7140   -15.6660   -46.2060 h1         1 34V       0.039200
     12 H12        -11.1080   -16.2150   -46.6740 h1         1 34V       0.039200
     13 HO1        -11.0820   -14.3070   -45.3330 ho         1 34V       0.403000
     14 HO2        -10.9480   -18.6090   -44.0790 ho         1 34V       0.402000
     15 H3         -13.0270   -18.2990   -43.4840 h1         1 34V       0.038700
     16 HO3        -14.1120   -16.4700   -42.8430 ho         1 34V       0.407000
     17 H4         -15.1170   -18.5720   -44.5390 h1         1 34V       0.050700
     18 HO4        -15.0800   -16.2290   -45.2720 ho         1 34V       0.418000
     19 H51        -14.0640   -19.0940   -46.9920 h1         1 34V       0.060700
     20 H52        -13.4440   -19.9070   -45.5490 h1         1 34V       0.060700
@<TRIPOS>BOND
     1     1     2 1   
     2     1     3 1   
     3     1    11 1   
     4     1    12 1   
     5     2    13 1   
     6     3     4 1   
     7     3     5 1   
     8     3    10 1   
     9     4    14 1   
    10     5     6 1   
    11     5     7 1   
    12     5    15 1   
    13     6    16 1   
    14     7     8 1   
    15     7     9 1   
    16     7    17 1   
    17     8    18 1   
    18     9    10 1   
    19     9    19 1   
    20     9    20 1   
@<TRIPOS>SUBSTRUCTURE
     1 34V         1 TEMP              0 ****  ****    0 ROOT
