@<TRIPOS>MOLECULE
34X
   37    39     1     0     0
SMALL
No Charge or Current Charge


@<TRIPOS>ATOM
      1 FAP          4.8800    -0.7860     2.1790 f          1 34X      -0.184000
      2 CAO          4.9930     0.0000     1.0830 ca         1 34X       0.131000
      3 CAN          6.2520     0.5250     0.7490 ca         1 34X      -0.131000
      4 CAM          6.3920     1.3430    -0.3830 ca         1 34X      -0.095000
      5 CAA          5.2700     1.6320    -1.1770 ca         1 34X      -0.105000
      6 CAB          4.0080     1.1070    -0.8430 ca         1 34X      -0.084000
      7 CAC          3.8560     0.2810     0.2950 ca         1 34X      -0.064000
      8 NAD          2.6080    -0.2850     0.6930 ns         1 34X      -0.160000
      9 CAE          1.3350    -0.2200     0.1470 c          1 34X       0.644100
     10 OAQ          1.0400     0.3910    -0.8720 o          1 34X      -0.574100
     11 NAF          0.4100    -0.9370     0.8820 ns         1 34X      -0.411200
     12 NAG         -0.9480    -0.9750     0.4890 na         1 34X      -0.066800
     13 CAH         -1.8880    -0.0340     0.8300 cc         1 34X      -0.220000
     14 CAR         -1.5090    -1.7290    -0.5260 cc         1 34X       0.682400
     15 NAW         -0.8840    -2.7230    -1.1700 nv         1 34X      -1.031900
     16 NAS         -2.7380    -1.4020    -0.7910 nd         1 34X      -0.726000
     17 CAI         -2.9910    -0.3330     0.0550 cd         1 34X       0.338500
     18 CAJ         -4.2900     0.3790     0.0680 ca         1 34X      -0.105500
     19 CAK         -5.3470    -0.0240    -0.7810 ca         1 34X      -0.092000
     20 CAL         -6.5780     0.6550    -0.7680 ca         1 34X      -0.116500
     21 CAV         -6.7720     1.7450     0.0930 ca         1 34X      -0.109000
     22 CAU         -5.7330     2.1570     0.9420 ca         1 34X      -0.116500
     23 CAT         -4.5000     1.4800     0.9300 ca         1 34X      -0.092000
     24 HAN          7.1150     0.2970     1.3690 ha         1 34X       0.135000
     25 HAM          7.3660     1.7520    -0.6450 ha         1 34X       0.123000
     26 HAA          5.3770     2.2670    -2.0540 ha         1 34X       0.124000
     27 HAB          3.1670     1.3560    -1.4820 ha         1 34X       0.139000
     28 HAD          2.6700    -0.8380     1.5380 hn         1 34X       0.162000
     29 HAF          0.7010    -1.4450     1.7100 hn         1 34X       0.336500
     30 HAH         -1.7130     0.7390     1.5650 h4         1 34X       0.162000
     31 HAW1         0.1280    -2.7060    -1.1400 hn         1 34X       0.471000
     32 HAW2        -1.3060    -3.0080    -2.0440 hn         1 34X       0.471000
     33 HAK         -5.2190    -0.8660    -1.4570 ha         1 34X       0.119000
     34 HAT         -3.7130     1.8200     1.5980 ha         1 34X       0.119000
     35 HAL         -7.3820     0.3330    -1.4270 ha         1 34X       0.109500
     36 HAV         -7.7250     2.2700     0.1030 ha         1 34X       0.110000
     37 HAU         -5.8810     3.0030     1.6100 ha         1 34X       0.109500
@<TRIPOS>BOND
     1     1     2 1   
     2     2     3 ar  
     3     2     7 ar  
     4     3     4 ar  
     5     3    24 1   
     6     4     5 ar  
     7     4    25 1   
     8     5     6 ar  
     9     5    26 1   
    10     6     7 ar  
    11     6    27 1   
    12     7     8 1   
    13     8     9 1   
    14     8    28 1   
    15     9    10 2   
    16     9    11 1   
    17    11    12 1   
    18    11    29 1   
    19    12    13 1   
    20    12    14 1   
    21    13    17 2   
    22    13    30 1   
    23    14    15 1   
    24    14    16 2   
    25    15    31 1   
    26    15    32 1   
    27    16    17 1   
    28    17    18 1   
    29    18    19 ar  
    30    18    23 ar  
    31    19    20 ar  
    32    19    33 1   
    33    20    21 ar  
    34    20    35 1   
    35    21    22 ar  
    36    21    36 1   
    37    22    23 ar  
    38    22    37 1   
    39    23    34 1   
@<TRIPOS>SUBSTRUCTURE
     1 34X         1 TEMP              0 ****  ****    0 ROOT
