@<TRIPOS>MOLECULE
34X
   37    39     1     0     0
SMALL
abcg2


@<TRIPOS>ATOM
      1 FAP          4.9420    -1.6060     1.0000 f          1 34X      -0.184000
      2 CAO          4.9380    -0.3690     0.4770 ca         1 34X       0.131000
      3 CAN          6.1240     0.1800     0.0370 ca         1 34X      -0.131000
      4 CAM          6.1090     1.4530    -0.5140 ca         1 34X      -0.095000
      5 CAA          4.9140     2.1550    -0.5960 ca         1 34X      -0.105000
      6 CAB          3.7340     1.5970    -0.1280 ca         1 34X      -0.084000
      7 CAC          3.7260     0.3120     0.4120 ca         1 34X      -0.064000
      8 NAD          2.5720    -0.2970     0.9170 ns         1 34X      -0.160000
      9 CAE          1.3680    -0.2900     0.2810 c          1 34X       0.644100
     10 OAQ          1.1290     0.2890    -0.7560 o          1 34X      -0.574100
     11 NAF          0.4180    -1.0500     0.9370 ns         1 34X      -0.411200
     12 NAG         -0.8660    -0.9670     0.5160 na         1 34X      -0.066800
     13 CAH         -1.7600     0.0610     0.7570 cc         1 34X      -0.220000
     14 CAR         -1.4760    -1.8660    -0.3030 cc         1 34X       0.682400
     15 NAW         -0.8750    -3.0270    -0.6790 nv         1 34X      -1.031900
     16 NAS         -2.6920    -1.4890    -0.5810 nd         1 34X      -0.726000
     17 CAI         -2.8830    -0.2900     0.0760 cd         1 34X       0.338500
     18 CAJ         -4.1530     0.4280    -0.0120 ca         1 34X      -0.105500
     19 CAK         -5.1970    -0.0790    -0.7870 ca         1 34X      -0.092000
     20 CAL         -6.4070     0.5960    -0.8790 ca         1 34X      -0.116500
     21 CAV         -6.5980     1.7910    -0.1980 ca         1 34X      -0.109000
     22 CAU         -5.5640     2.3040     0.5770 ca         1 34X      -0.116500
     23 CAT         -4.3560     1.6320     0.6700 ca         1 34X      -0.092000
     24 HAN          7.0410    -0.3890     0.1190 ha         1 34X       0.135000
     25 HAM          7.0300     1.8940    -0.8680 ha         1 34X       0.123000
     26 HAA          4.8970     3.1510    -1.0170 ha         1 34X       0.124000
     27 HAB          2.8180     2.1660    -0.1740 ha         1 34X       0.139000
     28 HAD          2.6900    -0.9190     1.7020 hn         1 34X       0.162000
     29 HAF          0.5510    -1.3450     1.8950 hn         1 34X       0.336500
     30 HAH         -1.4970     0.9020     1.3770 h4         1 34X       0.162000
     31 HAW1         0.1330    -3.0190    -0.7190 hn         1 34X       0.471000
     32 HAW2        -1.2900    -3.4640    -1.4860 hn         1 34X       0.471000
     33 HAK         -5.0600    -1.0100    -1.3220 ha         1 34X       0.119000
     34 HAT         -3.5680     2.0500     1.2820 ha         1 34X       0.119000
     35 HAL         -7.2020     0.1850    -1.4870 ha         1 34X       0.109500
     36 HAV         -7.5410     2.3160    -0.2680 ha         1 34X       0.110000
     37 HAU         -5.6990     3.2350     1.1130 ha         1 34X       0.109500
@<TRIPOS>BOND
     1     1     2 1   
     2     2     3 ar  
     3     2     7 ar  
     4     3     4 ar  
     5     3    24 1   
     6     4     5 ar  
     7     4    25 1   
     8     5     6 ar  
     9     5    26 1   
    10     6     7 ar  
    11     6    27 1   
    12     7     8 1   
    13     8     9 1   
    14     8    28 1   
    15     9    10 2   
    16     9    11 1   
    17    11    12 1   
    18    11    29 1   
    19    12    13 1   
    20    12    14 1   
    21    13    17 2   
    22    13    30 1   
    23    14    15 1   
    24    14    16 2   
    25    15    31 1   
    26    15    32 1   
    27    16    17 1   
    28    17    18 1   
    29    18    19 ar  
    30    18    23 ar  
    31    19    20 ar  
    32    19    33 1   
    33    20    21 ar  
    34    20    35 1   
    35    21    22 ar  
    36    21    36 1   
    37    22    23 ar  
    38    22    37 1   
    39    23    34 1   
@<TRIPOS>SUBSTRUCTURE
     1 34X         1 TEMP              0 ****  ****    0 ROOT
