@<TRIPOS>MOLECULE
34Y
   77    81     1     0     0
SMALL
No Charge or Current Charge


@<TRIPOS>ATOM
      1 C10         14.9120   -19.3020   -17.2800 c3         1 34Y      -0.105000
      2 C11         15.0540   -20.8290   -17.0920 c3         1 34Y      -0.086100
      3 C12         19.5610   -13.8380   -12.8270 ca         1 34Y      -0.121000
      4 C13         18.4060   -13.9910   -12.0310 ca         1 34Y      -0.014000
      5 C14         18.2830   -13.2150   -10.8560 ca         1 34Y      -0.123300
      6 C15         19.2970   -12.3010   -10.5020 ca         1 34Y      -0.071000
      7 C16         20.4520   -12.1400   -11.3000 ca         1 34Y      -0.131500
      8 C17         20.5660   -12.9250   -12.4670 ca         1 34Y      -0.064000
      9 C18         21.5160   -11.1840   -10.9340 cc         1 34Y       0.329500
     10 C19         21.5120   -10.3510    -9.7970 cc         1 34Y      -0.224000
     11 C20         22.6620    -9.6270    -9.8210 cd         1 34Y       0.007600
     12 N01         17.3640   -14.9090   -12.3550 ns         1 34Y      -0.164000
     13 C02         17.1150   -15.6820   -13.4780 c          1 34Y       0.671100
     14 O04         17.8010   -15.6830   -14.4880 o          1 34Y      -0.595100
     15 C05         15.4140   -17.3370   -14.2080 cc         1 34Y       0.427900
     16 N06         14.3170   -17.9790   -13.8580 nd         1 34Y      -0.439300
     17 O07         14.0160   -18.7990   -15.0050 os         1 34Y      -0.085700
     18 C08         14.9740   -18.5730   -15.9590 cd         1 34Y       0.204300
     19 C09         15.8650   -17.6650   -15.4980 cc         1 34Y      -0.243000
     20 N21         23.3250   -10.0480   -10.9740 na         1 34Y      -0.051200
     21 N22         22.6070   -11.0210   -11.6680 nd         1 34Y      -0.517800
     22 N23         23.1110    -8.6730    -8.9180 ns         1 34Y      -0.400100
     23 C24         22.5090    -8.2090    -7.7580 c          1 34Y       0.626700
     24 C25         23.2720    -7.1470    -6.9830 ca         1 34Y      -0.154600
     25 O26         21.4250    -8.6230    -7.3690 o          1 34Y      -0.564100
     26 C27         24.5290    -6.6470    -7.4090 ca         1 34Y      -0.072500
     27 C28         25.2000    -5.6640    -6.6610 ca         1 34Y      -0.105500
     28 C29         24.6370    -5.1570    -5.4750 ca         1 34Y      -0.055300
     29 C30         23.3920    -5.6470    -5.0460 ca         1 34Y      -0.105500
     30 C31         22.7170    -6.6290    -5.7900 ca         1 34Y      -0.072500
     31 C32         25.3650    -4.0870    -4.6650 c3         1 34Y       0.205100
     32 N33         24.6830    -2.7650    -4.6810 n3         1 34Y      -0.718600
     33 C34         24.5410    -2.1720    -6.0510 c6         1 34Y       0.162800
     34 C35         25.9030    -1.6640    -6.6310 c6         1 34Y       0.126300
     35 N36         26.5720    -0.6830    -5.7220 n3         1 34Y      -0.713600
     36 C37         26.7010    -1.2430    -4.3410 c6         1 34Y       0.126300
     37 C38         25.3330    -1.7610    -3.7800 c6         1 34Y       0.162800
     38 C39         27.8540    -0.1820    -6.2610 c3         1 34Y       0.150100
     39 C40         17.0560   -13.3470    -9.9540 c3         1 34Y      -0.046800
     40 C41         13.6340   -18.9390   -18.0690 c3         1 34Y      -0.086100
     41 H1          15.7660   -18.9740   -17.8860 hc         1 34Y       0.064700
     42 H2          15.9850   -21.0680   -16.5640 hc         1 34Y       0.044200
     43 H3          14.2170   -21.2330   -16.5090 hc         1 34Y       0.044200
     44 H4          15.0740   -21.3400   -18.0620 hc         1 34Y       0.044200
     45 H6          19.1730   -11.7180    -9.5950 ha         1 34Y       0.119000
     46 H7          21.4410   -12.8370   -13.1080 ha         1 34Y       0.133000
     47 H8          20.7280   -10.3080    -9.0530 ha         1 34Y       0.168000
     48 H9          16.6800   -15.0130   -11.6190 hn         1 34Y       0.152000
     49 H11         16.7340   -17.2790   -16.0140 ha         1 34Y       0.176000
     50 H12         24.2270    -9.7120   -11.3080 hn         1 34Y       0.367000
     51 H13         24.0030    -8.2340    -9.1020 hn         1 34Y       0.321500
     52 H14         25.0060    -7.0050    -8.3180 ha         1 34Y       0.123500
     53 H15         26.1620    -5.2930    -7.0070 ha         1 34Y       0.124000
     54 H16         22.9440    -5.2590    -4.1340 ha         1 34Y       0.124000
     55 H17         21.7540    -6.9860    -5.4310 ha         1 34Y       0.123500
     56 H18         26.3940    -3.9980    -5.0370 h1         1 34Y       0.042700
     57 H19         25.4400    -4.4470    -3.6300 h1         1 34Y       0.042700
     58 H21         23.8500    -1.3170    -6.0130 h1         1 34Y       0.061950
     59 H22         24.0980    -2.8940    -6.7530 h1         1 34Y       0.061950
     60 H23         26.5600    -2.5280    -6.8080 h1         1 34Y       0.034950
     61 H24         25.7140    -1.2020    -7.6110 h1         1 34Y       0.034950
     62 H26         27.4260    -2.0700    -4.3330 h1         1 34Y       0.034950
     63 H27         27.0890    -0.4740    -3.6570 h1         1 34Y       0.034950
     64 H28         24.6680    -0.8940    -3.6510 h1         1 34Y       0.061950
     65 H29         25.4920    -2.1830    -2.7770 h1         1 34Y       0.061950
     66 H30         28.2840     0.5790    -5.5950 h1         1 34Y       0.032367
     67 H31         28.5820    -0.9980    -6.3640 h1         1 34Y       0.032367
     68 H32         27.7080     0.2760    -7.2480 h1         1 34Y       0.032367
     69 H33         16.9690   -14.3630    -9.5520 hc         1 34Y       0.041700
     70 H34         17.1010   -12.6620    -9.0980 hc         1 34Y       0.041700
     71 H35         16.1350   -13.1180   -10.5030 hc         1 34Y       0.041700
     72 H36         13.5720   -17.8550   -18.2250 hc         1 34Y       0.044200
     73 H37         13.6340   -19.4240   -19.0530 hc         1 34Y       0.044200
     74 H38         12.7340   -19.2600   -17.5290 hc         1 34Y       0.044200
     75 N03         15.9880   -16.4520   -13.3290 ns         1 34Y      -0.498400
     76 H5          19.7080   -14.4230   -13.7280 ha         1 34Y       0.139000
     77 H10         15.5170   -16.3490   -12.4430 hn         1 34Y       0.332500
@<TRIPOS>BOND
     1     1     2 1   
     2     1    18 1   
     3     1    40 1   
     4     1    41 1   
     5     2    42 1   
     6     2    43 1   
     7     2    44 1   
     8     3     4 ar  
     9     3     8 ar  
    10     3    76 1   
    11     4     5 ar  
    12     4    12 1   
    13     5     6 ar  
    14     5    39 1   
    15     6     7 ar  
    16     6    45 1   
    17     7     8 ar  
    18     7     9 1   
    19     8    46 1   
    20     9    10 1   
    21     9    21 2   
    22    10    11 2   
    23    10    47 1   
    24    11    20 1   
    25    11    22 1   
    26    12    13 1   
    27    12    48 1   
    28    13    14 2   
    29    13    75 1   
    30    15    16 2   
    31    15    19 1   
    32    15    75 1   
    33    16    17 1   
    34    17    18 1   
    35    18    19 2   
    36    19    49 1   
    37    20    21 1   
    38    20    50 1   
    39    22    23 1   
    40    22    51 1   
    41    23    24 1   
    42    23    25 2   
    43    24    26 ar  
    44    24    30 ar  
    45    26    27 ar  
    46    26    52 1   
    47    27    28 ar  
    48    27    53 1   
    49    28    29 ar  
    50    28    31 1   
    51    29    30 ar  
    52    29    54 1   
    53    30    55 1   
    54    31    32 1   
    55    31    56 1   
    56    31    57 1   
    57    32    33 1   
    58    32    37 1   
    59    33    34 1   
    60    33    58 1   
    61    33    59 1   
    62    34    35 1   
    63    34    60 1   
    64    34    61 1   
    65    35    36 1   
    66    35    38 1   
    67    36    37 1   
    68    36    62 1   
    69    36    63 1   
    70    37    64 1   
    71    37    65 1   
    72    38    66 1   
    73    38    67 1   
    74    38    68 1   
    75    39    69 1   
    76    39    70 1   
    77    39    71 1   
    78    40    72 1   
    79    40    73 1   
    80    40    74 1   
    81    75    77 1   
@<TRIPOS>SUBSTRUCTURE
     1 34Y         1 TEMP              0 ****  ****    0 ROOT
