@<TRIPOS>MOLECULE
34Y
   77    81     1     0     0
SMALL
abcg2


@<TRIPOS>ATOM
      1 C10         14.6610   -18.3090   -17.5490 c3         1 34Y      -0.105000
      2 C11         14.9140   -19.7390   -18.0450 c3         1 34Y      -0.086100
      3 C12         19.8330   -14.3730   -12.3740 ca         1 34Y      -0.121000
      4 C13         18.7530   -14.6620   -11.5390 ca         1 34Y      -0.014000
      5 C14         18.5700   -13.9330   -10.3520 ca         1 34Y      -0.123300
      6 C15         19.4840   -12.9300   -10.0460 ca         1 34Y      -0.071000
      7 C16         20.5610   -12.6160   -10.8780 ca         1 34Y      -0.131500
      8 C17         20.7200   -13.3600   -12.0510 ca         1 34Y      -0.064000
      9 C18         21.4910   -11.5370   -10.5250 cc         1 34Y       0.329500
     10 C19         21.3980   -10.6370    -9.4330 cc         1 34Y      -0.224000
     11 C20         22.5090    -9.8220    -9.5550 cd         1 34Y       0.007600
     12 N01         17.8470   -15.7000   -11.8350 ns         1 34Y      -0.164000
     13 C02         17.4130   -16.0610   -13.0830 c          1 34Y       0.671100
     14 O04         17.7680   -15.5260   -14.1230 o          1 34Y      -0.595100
     15 C05         15.8570   -17.6420   -14.1390 cc         1 34Y       0.427900
     16 N06         15.0050   -18.6250   -13.9330 nd         1 34Y      -0.439300
     17 O07         14.5050   -18.9450   -15.2070 os         1 34Y      -0.085700
     18 C08         15.0770   -18.1420   -16.1260 cd         1 34Y       0.204300
     19 C09         15.9470   -17.2950   -15.5170 cc         1 34Y      -0.243000
     20 N21         23.1810   -10.2430   -10.6520 na         1 34Y      -0.051200
     21 N22         22.5780   -11.2880   -11.2600 nd         1 34Y      -0.517800
     22 N23         22.9910    -8.7600    -8.8080 ns         1 34Y      -0.400100
     23 C24         22.3730    -8.2240    -7.7100 c          1 34Y       0.626700
     24 C25         23.1000    -7.1090    -7.0370 ca         1 34Y      -0.154600
     25 O26         21.2880    -8.6300    -7.3110 o          1 34Y      -0.564100
     26 C27         24.4840    -6.9440    -7.1100 ca         1 34Y      -0.072500
     27 C28         25.1000    -5.8970    -6.4340 ca         1 34Y      -0.105500
     28 C29         24.3560    -4.9950    -5.6790 ca         1 34Y      -0.055300
     29 C30         22.9710    -5.1650    -5.6100 ca         1 34Y      -0.105500
     30 C31         22.3510    -6.2110    -6.2700 ca         1 34Y      -0.072500
     31 C32         25.0240    -3.8610    -4.9410 c3         1 34Y       0.205100
     32 N33         24.5060    -2.5580    -5.3670 n3         1 34Y      -0.718600
     33 C34         24.8690    -2.2030    -6.7420 c6         1 34Y       0.162800
     34 C35         26.3210    -1.7570    -6.8920 c6         1 34Y       0.126300
     35 N36         26.6110    -0.6430    -5.9900 n3         1 34Y      -0.713600
     36 C37         26.3260    -1.0170    -4.6050 c6         1 34Y       0.126300
     37 C38         24.8730    -1.4650    -4.4640 c6         1 34Y       0.162800
     38 C39         27.9790    -0.1780    -6.1440 c3         1 34Y       0.150100
     39 C40         17.4160   -14.2180    -9.4310 c3         1 34Y      -0.046800
     40 C41         13.1930   -17.8980   -17.7430 c3         1 34Y      -0.086100
     41 H1          15.2900   -17.6250   -18.1230 hc         1 34Y       0.064700
     42 H2          15.9610   -20.0210   -17.9210 hc         1 34Y       0.044200
     43 H3          14.2980   -20.4540   -17.4970 hc         1 34Y       0.044200
     44 H4          14.6600   -19.8120   -19.1040 hc         1 34Y       0.044200
     45 H6          19.3380   -12.3730    -9.1290 ha         1 34Y       0.119000
     46 H7          21.5490   -13.1470   -12.7120 ha         1 34Y       0.133000
     47 H8          20.6410   -10.5740    -8.6760 ha         1 34Y       0.168000
     48 H9          17.3770   -16.1180   -11.0470 hn         1 34Y       0.152000
     49 H11         16.5590   -16.5390   -15.9680 ha         1 34Y       0.176000
     50 H12         24.0420    -9.8720   -11.0240 hn         1 34Y       0.367000
     51 H13         23.8350    -8.3200    -9.1400 hn         1 34Y       0.321500
     52 H14         25.1000    -7.6380    -7.6680 ha         1 34Y       0.123500
     53 H15         26.1750    -5.7830    -6.4930 ha         1 34Y       0.124000
     54 H16         22.3800    -4.4640    -5.0330 ha         1 34Y       0.124000
     55 H17         21.2800    -6.3450    -6.2030 ha         1 34Y       0.123500
     56 H18         26.1110    -3.9590    -5.0550 h1         1 34Y       0.042700
     57 H19         24.8080    -3.9560    -3.8740 h1         1 34Y       0.042700
     58 H21         24.2170    -1.3830    -7.0580 h1         1 34Y       0.061950
     59 H22         24.6720    -3.0530    -7.3960 h1         1 34Y       0.061950
     60 H23         27.0020    -2.6060    -6.7000 h1         1 34Y       0.034950
     61 H24         26.4980    -1.4310    -7.9200 h1         1 34Y       0.034950
     62 H26         27.0060    -1.8180    -4.2650 h1         1 34Y       0.034950
     63 H27         26.5050    -0.1500    -3.9650 h1         1 34Y       0.034950
     64 H28         24.2240    -0.6140    -4.6910 h1         1 34Y       0.061950
     65 H29         24.6750    -1.7740    -3.4360 h1         1 34Y       0.061950
     66 H30         28.1540     0.6770    -5.4890 h1         1 34Y       0.032367
     67 H31         28.7190    -0.9590    -5.8930 h1         1 34Y       0.032367
     68 H32         28.1500     0.1320    -7.1760 h1         1 34Y       0.032367
     69 H33         17.4820   -15.2190    -8.9930 hc         1 34Y       0.041700
     70 H34         17.3960   -13.5010    -8.6110 hc         1 34Y       0.041700
     71 H35         16.4620   -14.1610    -9.9600 hc         1 34Y       0.041700
     72 H36         13.0240   -16.8730   -17.4110 hc         1 34Y       0.044200
     73 H37         12.9270   -17.9680   -18.7990 hc         1 34Y       0.044200
     74 H38         12.5300   -18.5570   -17.1800 hc         1 34Y       0.044200
     75 N03         16.5110   -17.1110   -13.0480 ns         1 34Y      -0.498400
     76 H5          19.9740   -14.9450   -13.2780 ha         1 34Y       0.139000
     77 H10         16.2760   -17.5250   -12.1580 hn         1 34Y       0.332500
@<TRIPOS>BOND
     1     1     2 1   
     2     1    18 1   
     3     1    40 1   
     4     1    41 1   
     5     2    42 1   
     6     2    43 1   
     7     2    44 1   
     8     3     4 ar  
     9     3     8 ar  
    10     3    76 1   
    11     4     5 ar  
    12     4    12 1   
    13     5     6 ar  
    14     5    39 1   
    15     6     7 ar  
    16     6    45 1   
    17     7     8 ar  
    18     7     9 1   
    19     8    46 1   
    20     9    10 1   
    21     9    21 2   
    22    10    11 2   
    23    10    47 1   
    24    11    20 1   
    25    11    22 1   
    26    12    13 1   
    27    12    48 1   
    28    13    14 2   
    29    13    75 1   
    30    15    16 2   
    31    15    19 1   
    32    15    75 1   
    33    16    17 1   
    34    17    18 1   
    35    18    19 2   
    36    19    49 1   
    37    20    21 1   
    38    20    50 1   
    39    22    23 1   
    40    22    51 1   
    41    23    24 1   
    42    23    25 2   
    43    24    26 ar  
    44    24    30 ar  
    45    26    27 ar  
    46    26    52 1   
    47    27    28 ar  
    48    27    53 1   
    49    28    29 ar  
    50    28    31 1   
    51    29    30 ar  
    52    29    54 1   
    53    30    55 1   
    54    31    32 1   
    55    31    56 1   
    56    31    57 1   
    57    32    33 1   
    58    32    37 1   
    59    33    34 1   
    60    33    58 1   
    61    33    59 1   
    62    34    35 1   
    63    34    60 1   
    64    34    61 1   
    65    35    36 1   
    66    35    38 1   
    67    36    37 1   
    68    36    62 1   
    69    36    63 1   
    70    37    64 1   
    71    37    65 1   
    72    38    66 1   
    73    38    67 1   
    74    38    68 1   
    75    39    69 1   
    76    39    70 1   
    77    39    71 1   
    78    40    72 1   
    79    40    73 1   
    80    40    74 1   
    81    75    77 1   
@<TRIPOS>SUBSTRUCTURE
     1 34Y         1 TEMP              0 ****  ****    0 ROOT
