@<TRIPOS>MOLECULE
34Z
   14    14     1     0     0
SMALL
No Charge or Current Charge


@<TRIPOS>ATOM
      1 Cl4         -2.9700     1.1030     0.0360 cl         1 34Z      -0.235000
      2 C4          -1.2410     0.7490     0.0250 ca         1 34Z       0.096000
      3 C5          -0.3280     1.8150     0.0340 ca         1 34Z      -0.131000
      4 C6           1.0560     1.5640     0.0260 ca         1 34Z      -0.078000
      5 C3          -0.7660    -0.5780     0.0080 ca         1 34Z       0.099000
      6 Cl3         -1.8820    -1.9460    -0.0040 cl         1 34Z      -0.232000
      7 C2           0.6170    -0.8290     0.0000 ca         1 34Z      -0.074000
      8 C1           1.5480     0.2380     0.0090 ca         1 34Z      -0.127600
      9 C            3.0430    -0.0380     0.0000 c          1 34Z       0.716600
     10 O2           3.8130     0.9120     0.0090 o          1 34Z      -0.711000
     11 O1           3.4220    -1.2010    -0.0150 o          1 34Z      -0.711000
     12 H5          -0.6920     2.8390     0.0480 ha         1 34Z       0.106000
     13 H6           1.7440     2.4070     0.0340 ha         1 34Z       0.136000
     14 H2           0.9630    -1.8600    -0.0130 ha         1 34Z       0.148000
@<TRIPOS>BOND
     1     1     2 1   
     2     2     3 ar  
     3     2     5 ar  
     4     3     4 ar  
     5     3    12 1   
     6     4     8 ar  
     7     4    13 1   
     8     5     6 1   
     9     5     7 ar  
    10     7     8 ar  
    11     7    14 1   
    12     8     9 1   
    13     9    10 1   
    14     9    11 1   
@<TRIPOS>SUBSTRUCTURE
     1 34Z         1 TEMP              0 ****  ****    0 ROOT
