@<TRIPOS>MOLECULE
34Z
   14    14     1     0     0
SMALL
bcc


@<TRIPOS>ATOM
      1 CL4         -2.9130     1.0700     0.0370 cl         1 34Z      -0.143400
      2 C4          -1.2200     0.7450     0.0250 ca         1 34Z       0.004400
      3 C5          -0.3190     1.8000     0.0330 ca         1 34Z      -0.149000
      4 C6           1.0420     1.5460     0.0240 ca         1 34Z      -0.096000
      5 C3          -0.7460    -0.5620     0.0090 ca         1 34Z       0.007400
      6 CL3         -1.8490    -1.8910    -0.0010 cl         1 34Z      -0.140400
      7 C2           0.6170    -0.8080    -0.0000 ca         1 34Z      -0.092000
      8 C1           1.5270     0.2420     0.0080 ca         1 34Z      -0.127600
      9 C            3.0280    -0.0450     0.0010 c          1 34Z       0.927200
     10 O2           3.7740     0.9530     0.0190 o          1 34Z      -0.816300
     11 O1           3.3620    -1.2390    -0.0210 o          1 34Z      -0.816300
     12 H5          -0.6890     2.8170     0.0460 ha         1 34Z       0.124000
     13 H6           1.7360     2.3750     0.0310 ha         1 34Z       0.154000
     14 H2           0.9790    -1.8270    -0.0140 ha         1 34Z       0.166000
@<TRIPOS>BOND
     1     1     2 1   
     2     2     3 ar  
     3     2     5 ar  
     4     3     4 ar  
     5     3    12 1   
     6     4     8 ar  
     7     4    13 1   
     8     5     6 1   
     9     5     7 ar  
    10     7     8 ar  
    11     7    14 1   
    12     8     9 1   
    13     9    10 1   
    14     9    11 1   
@<TRIPOS>SUBSTRUCTURE
     1 34Z         1 TEMP              0 ****  ****    0 ROOT
