@<TRIPOS>MOLECULE
351
   67    72     1     0     0
SMALL
abcg2


@<TRIPOS>ATOM
      1 N1          -9.6650     4.9010     0.2830 n8         1 351      -0.997200
      2 C2          -9.5780     3.8580    -0.7260 c3         1 351       0.196100
      3 C3          -8.6200     2.7670    -0.3250 ca         1 351      -0.086300
      4 C4          -8.5770     2.2840     0.9820 ca         1 351      -0.097000
      5 C5          -7.7160     1.2580     1.3350 ca         1 351      -0.106000
      6 C6          -6.8650     0.6750     0.3930 cp         1 351      -0.024000
      7 C7          -6.9050     1.1630    -0.9120 ca         1 351      -0.106000
      8 C8          -7.7640     2.1950    -1.2610 ca         1 351      -0.097000
      9 C9          -5.9470    -0.4180     0.7650 cp         1 351      -0.116000
     10 C10         -6.3640    -1.4180     1.6630 ca         1 351       0.369900
     11 N11         -5.6130    -2.4290     2.0640 nb         1 351      -0.682000
     12 C12         -4.3970    -2.4730     1.5470 ca         1 351       0.366500
     13 N13         -3.4420    -3.4000     1.8270 na         1 351      -0.321400
     14 C14         -2.3170    -3.1120     1.1140 cc         1 351      -0.138100
     15 C15         -2.5080    -1.9890     0.3500 cd         1 351      -0.082400
     16 C16         -1.5290    -1.3790    -0.5490 ca         1 351       0.021200
     17 C17         -1.9240    -0.7780    -1.7460 ca         1 351      -0.130000
     18 C18         -0.9720    -0.2180    -2.5810 ca         1 351      -0.086000
     19 C19          0.3800    -0.2470    -2.2690 ca         1 351      -0.127000
     20 C20          0.7890    -0.8610    -1.0840 ca         1 351      -0.003000
     21 N21          2.1160    -0.9240    -0.6530 ns         1 351      -0.164000
     22 C22          3.2450    -0.8620    -1.4240 c          1 351       0.664100
     23 O23          3.2410    -0.7040    -2.6310 o          1 351      -0.606100
     24 N24          4.3910    -1.0110    -0.6890 ns         1 351      -0.166000
     25 C25          5.6770    -0.9520    -1.2440 ca         1 351      -0.048000
     26 C26          6.0370    -1.7110    -2.3510 ca         1 351      -0.077000
     27 C27          7.3220    -1.6440    -2.8690 ca         1 351      -0.124000
     28 C28          8.2670    -0.8300    -2.2640 ca         1 351      -0.090000
     29 C29          7.9310    -0.0760    -1.1470 ca         1 351      -0.165000
     30 C30          6.6380    -0.1280    -0.6460 ca         1 351       0.101100
     31 O31          6.2120     0.5960     0.4250 os         1 351      -0.267200
     32 C32          7.1390     1.2530     1.2000 ca         1 351       0.094100
     33 C33          7.3270     2.6130     1.0160 ca         1 351      -0.117000
     34 C34          8.2310     3.2860     1.8290 ca         1 351      -0.101000
     35 C35          8.9400     2.6020     2.8070 ca         1 351      -0.110000
     36 C36          8.7400     1.2380     2.9780 ca         1 351      -0.101000
     37 C37          7.8390     0.5550     2.1740 ca         1 351      -0.117000
     38 C38         -0.1720    -1.4080    -0.2340 ca         1 351      -0.170000
     39 C39         -3.8520    -1.5600     0.6170 ca         1 351      -0.122800
     40 C40         -4.6630    -0.4960     0.2370 ca         1 351      -0.018000
     41 HN1         -8.7910     5.4110     0.3150 hn         1 351       0.396000
     42 HN1A       -10.3690     5.5730     0.0070 hn         1 351       0.396000
     43 H2         -10.5750     3.4220    -0.8410 h1         1 351       0.034700
     44 H2A         -9.2950     4.2230    -1.7220 h1         1 351       0.034700
     45 H4          -9.2180     2.7270     1.7340 ha         1 351       0.119500
     46 H5          -7.6930     0.9220     2.3650 ha         1 351       0.113500
     47 H7          -6.2700     0.7260    -1.6730 ha         1 351       0.113500
     48 H8          -7.7710     2.5540    -2.2840 ha         1 351       0.119500
     49 H10         -7.3720    -1.3890     2.0630 h4         1 351       0.023100
     50 HN13        -3.5570    -4.1910     2.4410 hn         1 351       0.363000
     51 H14         -1.4480    -3.7470     1.1850 h4         1 351       0.217000
     52 H17         -2.9660    -0.7680    -2.0370 ha         1 351       0.117000
     53 H18         -1.2840     0.2520    -3.5050 ha         1 351       0.114000
     54 H19          1.0910     0.2110    -2.9370 ha         1 351       0.145000
     55 HN21         2.2340    -1.1910     0.3120 hn         1 351       0.146000
     56 HN24         4.3300    -0.9430     0.3160 hn         1 351       0.158000
     57 H26          5.3090    -2.3700    -2.8040 ha         1 351       0.135000
     58 H27          7.5830    -2.2370    -3.7350 ha         1 351       0.120000
     59 H28          9.2750    -0.7780    -2.6530 ha         1 351       0.115000
     60 H29          8.6760     0.5580    -0.6850 ha         1 351       0.127000
     61 H33          6.7730     3.1410     0.2510 ha         1 351       0.129000
     62 H34          8.3820     4.3490     1.6920 ha         1 351       0.118000
     63 H35          9.6430     3.1310     3.4370 ha         1 351       0.118000
     64 H36          9.2840     0.6990     3.7420 ha         1 351       0.118000
     65 H37          7.6750    -0.5070     2.3060 ha         1 351       0.129000
     66 H38          0.1440    -1.8550     0.7020 ha         1 351       0.105000
     67 H40         -4.3020     0.2740    -0.4330 ha         1 351       0.127000
@<TRIPOS>BOND
     1     1     2 1   
     2     1    41 1   
     3     1    42 1   
     4     2     3 1   
     5     2    43 1   
     6     2    44 1   
     7     3     4 ar  
     8     3     8 ar  
     9     4     5 ar  
    10     4    45 1   
    11     5     6 ar  
    12     5    46 1   
    13     6     7 ar  
    14     6     9 1   
    15     7     8 ar  
    16     7    47 1   
    17     8    48 1   
    18     9    10 ar  
    19     9    40 ar  
    20    10    11 ar  
    21    10    49 1   
    22    11    12 ar  
    23    12    13 1   
    24    12    39 ar  
    25    13    14 1   
    26    13    50 1   
    27    14    15 2   
    28    14    51 1   
    29    15    16 1   
    30    15    39 1   
    31    16    17 ar  
    32    16    38 ar  
    33    17    18 ar  
    34    17    52 1   
    35    18    19 ar  
    36    18    53 1   
    37    19    20 ar  
    38    19    54 1   
    39    20    21 1   
    40    20    38 ar  
    41    21    22 1   
    42    21    55 1   
    43    22    23 2   
    44    22    24 1   
    45    24    25 1   
    46    24    56 1   
    47    25    26 ar  
    48    25    30 ar  
    49    26    27 ar  
    50    26    57 1   
    51    27    28 ar  
    52    27    58 1   
    53    28    29 ar  
    54    28    59 1   
    55    29    30 ar  
    56    29    60 1   
    57    30    31 1   
    58    31    32 1   
    59    32    33 ar  
    60    32    37 ar  
    61    33    34 ar  
    62    33    61 1   
    63    34    35 ar  
    64    34    62 1   
    65    35    36 ar  
    66    35    63 1   
    67    36    37 ar  
    68    36    64 1   
    69    37    65 1   
    70    38    66 1   
    71    39    40 ar  
    72    40    67 1   
@<TRIPOS>SUBSTRUCTURE
     1 351         1 TEMP              0 ****  ****    0 ROOT
