@<TRIPOS>MOLECULE
351
   67    72     1     0     0
SMALL
No Charge or Current Charge


@<TRIPOS>ATOM
      1 N1          -9.5310     4.5480    -1.4450 n8         1 351      -0.997200
      2 C2          -9.9550     3.1510    -1.2390 c3         1 351       0.196100
      3 C3          -8.8560     2.3250    -0.5830 ca         1 351      -0.086300
      4 C4          -8.7160     2.3120     0.8170 ca         1 351      -0.097000
      5 C5          -7.7080     1.5440     1.4250 ca         1 351      -0.106000
      6 C6          -6.8100     0.7660     0.6500 cp         1 351      -0.024000
      7 C7          -6.9660     0.7900    -0.7580 ca         1 351      -0.106000
      8 C8          -7.9750     1.5580    -1.3670 ca         1 351      -0.097000
      9 C9          -5.7360    -0.0540     1.2970 cp         1 351      -0.116000
     10 C10         -5.9200    -0.6400     2.5840 ca         1 351       0.369900
     11 N11         -4.9760    -1.3660     3.2350 nb         1 351      -0.682000
     12 C12         -3.8080    -1.5520     2.5970 ca         1 351       0.366500
     13 N13         -2.6740    -2.1900     3.0480 na         1 351      -0.321400
     14 C14         -1.6260    -2.1170     2.1080 cc         1 351      -0.138100
     15 C15         -2.1780    -1.4660     1.0140 cd         1 351      -0.082400
     16 C16         -1.4300    -1.1250    -0.2190 ca         1 351       0.021200
     17 C17         -2.0790    -0.9270    -1.4550 ca         1 351      -0.130000
     18 C18         -1.3430    -0.6170    -2.6090 ca         1 351      -0.086000
     19 C19          0.0550    -0.5110    -2.5510 ca         1 351      -0.127000
     20 C20          0.7300    -0.7320    -1.3320 ca         1 351      -0.003000
     21 N21          2.1440    -0.6570    -1.1880 ns         1 351      -0.164000
     22 C22          3.1630    -0.3720    -2.0860 c          1 351       0.664100
     23 O23          2.9890    -0.1110    -3.2710 o          1 351      -0.606100
     24 N24          4.4050    -0.4190    -1.4700 ns         1 351      -0.166000
     25 C25          5.7310    -0.2070    -1.9500 ca         1 351      -0.048000
     26 C26          6.0300     0.1290    -3.2910 ca         1 351      -0.077000
     27 C27          7.3620     0.3250    -3.6950 ca         1 351      -0.124000
     28 C28          8.4110     0.1840    -2.7730 ca         1 351      -0.090000
     29 C29          8.1270    -0.1490    -1.4400 ca         1 351      -0.165000
     30 C30          6.7930    -0.3340    -1.0270 ca         1 351       0.101100
     31 O31          6.5150    -0.6730     0.2810 os         1 351      -0.267200
     32 C32          7.1290    -0.0720     1.3570 ca         1 351       0.094100
     33 C33          7.4770     1.2940     1.3310 ca         1 351      -0.117000
     34 C34          8.0890     1.8840     2.4520 ca         1 351      -0.101000
     35 C35          8.3460     1.1140     3.5990 ca         1 351      -0.110000
     36 C36          7.9880    -0.2460     3.6300 ca         1 351      -0.101000
     37 C37          7.3760    -0.8360     2.5100 ca         1 351      -0.117000
     38 C38         -0.0210    -1.0460    -0.1840 ca         1 351      -0.170000
     39 C39         -3.5420    -1.0610     1.3370 ca         1 351      -0.122800
     40 C40         -4.4860    -0.2710     0.6620 ca         1 351      -0.018000
     41 HN1         -8.7250     4.5540    -2.0810 hn         1 351       0.396000
     42 HN1A       -10.2620     5.0420    -1.9730 hn         1 351       0.396000
     43 H2         -10.8550     3.1420    -0.6080 h1         1 351       0.034700
     44 H2A        -10.2180     2.7130    -2.2130 h1         1 351       0.034700
     45 H4          -9.3880     2.9030     1.4360 ha         1 351       0.119500
     46 H5          -7.6160     1.5660     2.5080 ha         1 351       0.113500
     47 H7          -6.3090     0.1970    -1.3890 ha         1 351       0.113500
     48 H8          -8.0720     1.5520    -2.4510 ha         1 351       0.119500
     49 H10         -6.8620    -0.5160     3.1150 h4         1 351       0.023100
     50 HN13        -2.6150    -2.6290     3.9590 hn         1 351       0.363000
     51 H14         -0.6380    -2.5360     2.2770 h4         1 351       0.217000
     52 H17         -3.1490    -1.0680    -1.5500 ha         1 351       0.117000
     53 H18         -1.8570    -0.4730    -3.5570 ha         1 351       0.114000
     54 H19          0.5910    -0.2710    -3.4640 ha         1 351       0.145000
     55 HN21         2.4630    -0.8490    -0.2480 hn         1 351       0.146000
     56 HN24         4.3700    -0.6500    -0.4860 hn         1 351       0.158000
     57 H26          5.2480     0.2430    -4.0350 ha         1 351       0.135000
     58 H27          7.5820     0.5820    -4.7290 ha         1 351       0.120000
     59 H28          9.4410     0.3300    -3.0920 ha         1 351       0.115000
     60 H29          8.9410    -0.2670    -0.7290 ha         1 351       0.127000
     61 H33          7.2710     1.8980     0.4510 ha         1 351       0.129000
     62 H34          8.3600     2.9370     2.4320 ha         1 351       0.118000
     63 H35          8.8190     1.5710     4.4660 ha         1 351       0.118000
     64 H36          8.1830    -0.8400     4.5200 ha         1 351       0.118000
     65 H37          7.0960    -1.8860     2.5330 ha         1 351       0.129000
     66 H38          0.5030    -1.2060     0.7540 ha         1 351       0.105000
     67 H40         -4.2660     0.2030    -0.2880 ha         1 351       0.127000
@<TRIPOS>BOND
     1     1     2 1   
     2     1    41 1   
     3     1    42 1   
     4     2     3 1   
     5     2    43 1   
     6     2    44 1   
     7     3     4 ar  
     8     3     8 ar  
     9     4     5 ar  
    10     4    45 1   
    11     5     6 ar  
    12     5    46 1   
    13     6     7 ar  
    14     6     9 1   
    15     7     8 ar  
    16     7    47 1   
    17     8    48 1   
    18     9    10 ar  
    19     9    40 ar  
    20    10    11 ar  
    21    10    49 1   
    22    11    12 ar  
    23    12    13 1   
    24    12    39 ar  
    25    13    14 1   
    26    13    50 1   
    27    14    15 2   
    28    14    51 1   
    29    15    16 1   
    30    15    39 1   
    31    16    17 ar  
    32    16    38 ar  
    33    17    18 ar  
    34    17    52 1   
    35    18    19 ar  
    36    18    53 1   
    37    19    20 ar  
    38    19    54 1   
    39    20    21 1   
    40    20    38 ar  
    41    21    22 1   
    42    21    55 1   
    43    22    23 2   
    44    22    24 1   
    45    24    25 1   
    46    24    56 1   
    47    25    26 ar  
    48    25    30 ar  
    49    26    27 ar  
    50    26    57 1   
    51    27    28 ar  
    52    27    58 1   
    53    28    29 ar  
    54    28    59 1   
    55    29    30 ar  
    56    29    60 1   
    57    30    31 1   
    58    31    32 1   
    59    32    33 ar  
    60    32    37 ar  
    61    33    34 ar  
    62    33    61 1   
    63    34    35 ar  
    64    34    62 1   
    65    35    36 ar  
    66    35    63 1   
    67    36    37 ar  
    68    36    64 1   
    69    37    65 1   
    70    38    66 1   
    71    39    40 ar  
    72    40    67 1   
@<TRIPOS>SUBSTRUCTURE
     1 351         1 TEMP              0 ****  ****    0 ROOT
