@<TRIPOS>MOLECULE
352
   40    41     1     0     0
SMALL
bcc


@<TRIPOS>ATOM
      1 C1          -4.1770    -0.3410     0.3440 c3         1 352       0.190800
      2 C2          -3.7820     0.0040     1.7800 c3         1 352      -0.125600
      3 C3           3.6740     1.0080    -0.7870 ca         1 352      -0.087500
      4 C4           4.9340     0.5850    -1.1860 ca         1 352      -0.171000
      5 C5           5.5260    -0.4560    -0.5000 ca         1 352       0.146900
      6 C6           4.9060    -1.0790     0.5660 ca         1 352      -0.171000
      7 C7           3.6510    -0.6350     0.9540 ca         1 352      -0.087500
      8 C8           3.0180     0.4100     0.2840 ca         1 352      -0.126300
      9 N9           0.6690    -0.1520     0.3340 nu         1 352      -0.802200
     10 C10          1.6430     0.8800     0.6900 c3         1 352       0.283800
     11 C11         -0.5860     0.1070     0.0220 c2         1 352       0.725100
     12 S12         -1.6650    -1.2330    -0.3070 ss         1 352      -0.260300
     13 C13         -3.0180    -0.0520    -0.6500 c5         1 352      -0.067900
     14 C14         -2.3740     1.3330    -0.4270 c          1 352       0.715500
     15 N15         -1.0670     1.3180    -0.0570 ne         1 352      -0.757100
     16 O16         -3.0120     2.3500    -0.6070 o          1 352      -0.523100
     17 C17         -3.4280    -0.1750    -2.1170 c3         1 352      -0.067100
     18 F18          6.7440    -0.8760    -0.8780 f          1 352      -0.139900
     19 C19          1.5400     1.2420     2.1670 c3         1 352      -0.106100
     20 O20         -4.3870    -1.7370     0.2130 oh         1 352      -0.600800
     21 C21         -5.4550     0.4110    -0.0240 c3         1 352      -0.125600
     22 H2          -3.6380     1.0760     1.9130 hc         1 352       0.050367
     23 H2A         -4.5770    -0.2980     2.4640 hc         1 352       0.050367
     24 H2B         -2.8710    -0.5110     2.0870 hc         1 352       0.050367
     25 H3           3.2000     1.8220    -1.3220 ha         1 352       0.138500
     26 H4           5.4420     1.0570    -2.0170 ha         1 352       0.154000
     27 H6           5.3940    -1.8910     1.0880 ha         1 352       0.154000
     28 H7           3.1710    -1.1230     1.7940 ha         1 352       0.138500
     29 HN9          0.9560    -1.1160     0.4180 hn         1 352       0.452800
     30 H10          1.3880     1.7620     0.1020 h1         1 352       0.094700
     31 H17         -4.1520     0.5960    -2.3760 hc         1 352       0.055033
     32 H17A        -2.5620    -0.0520    -2.7670 hc         1 352       0.055033
     33 H17B        -3.8710    -1.1470    -2.3250 hc         1 352       0.055033
     34 H19          2.2570     2.0250     2.4130 hc         1 352       0.049700
     35 H19A         0.5400     1.6110     2.3940 hc         1 352       0.049700
     36 H19B         1.7400     0.3850     2.8100 hc         1 352       0.049700
     37 HO20        -5.0950    -1.9950     0.8140 ho         1 352       0.408000
     38 H21         -5.3070     1.4890    -0.0290 hc         1 352       0.050367
     39 H21A        -5.8370     0.1130    -1.0000 hc         1 352       0.050367
     40 H21B        -6.2290     0.1880     0.7150 hc         1 352       0.050367
@<TRIPOS>BOND
     1     1     2 1   
     2     1    13 1   
     3     1    20 1   
     4     1    21 1   
     5     2    22 1   
     6     2    23 1   
     7     2    24 1   
     8     3     4 ar  
     9     3     8 ar  
    10     3    25 1   
    11     4     5 ar  
    12     4    26 1   
    13     5     6 ar  
    14     5    18 1   
    15     6     7 ar  
    16     6    27 1   
    17     7     8 ar  
    18     7    28 1   
    19     8    10 1   
    20     9    10 1   
    21     9    11 1   
    22     9    29 1   
    23    10    19 1   
    24    10    30 1   
    25    11    12 1   
    26    11    15 2   
    27    12    13 1   
    28    13    14 1   
    29    13    17 1   
    30    14    15 1   
    31    14    16 2   
    32    17    31 1   
    33    17    32 1   
    34    17    33 1   
    35    19    34 1   
    36    19    35 1   
    37    19    36 1   
    38    20    37 1   
    39    21    38 1   
    40    21    39 1   
    41    21    40 1   
@<TRIPOS>SUBSTRUCTURE
     1 352         1 TEMP              0 ****  ****    0 ROOT
