@<TRIPOS>MOLECULE
352
   40    41     1     0     0
SMALL
No Charge or Current Charge


@<TRIPOS>ATOM
      1 C1          -3.9910    -0.3220     0.3790 c3         1 352       0.214000
      2 C2          -3.2060    -0.1630     1.7090 c3         1 352      -0.125600
      3 C3           3.8070     1.1010    -0.6080 ca         1 352      -0.069500
      4 C4           5.1320     0.6780    -0.8160 ca         1 352      -0.153000
      5 C5           5.6380    -0.4150    -0.0990 ca         1 352       0.182000
      6 C6           4.8280    -1.0910     0.8240 ca         1 352      -0.153000
      7 C7           3.5020    -0.6710     1.0350 ca         1 352      -0.069500
      8 C8           2.9820     0.4340     0.3220 ca         1 352      -0.126300
      9 N9           0.6370    -0.0900    -0.0410 nu         1 352      -0.857400
     10 C10          1.5430     0.9050     0.5310 c3         1 352       0.283800
     11 C11         -0.6480     0.1360    -0.4370 c2         1 352       0.725100
     12 S12         -1.6420    -1.2160    -0.9640 ss         1 352      -0.308200
     13 C13         -3.1110    -0.0680    -0.9160 c5         1 352      -0.020000
     14 C14         -2.4830     1.3640    -0.8910 c          1 352       0.715500
     15 N15         -1.1700     1.3020    -0.4440 ne         1 352      -0.757100
     16 O16         -3.0070     2.3950    -1.2840 o          1 352      -0.523100
     17 C17         -3.9070    -0.2870    -2.2380 c3         1 352      -0.067100
     18 F18          6.9110    -0.8210    -0.3010 f          1 352      -0.175000
     19 C19          1.2000     1.1420     2.0160 c3         1 352      -0.106100
     20 O20         -4.4660    -1.6710     0.3530 oh         1 352      -0.663000
     21 C21         -5.2510     0.5820     0.4490 c3         1 352      -0.125600
     22 H2          -2.8340     0.8610     1.8320 hc         1 352       0.050367
     23 H2A         -3.8460    -0.3820     2.5730 hc         1 352       0.050367
     24 H2B         -2.3500    -0.8460     1.7600 hc         1 352       0.050367
     25 H3           3.4230     1.9490    -1.1720 ha         1 352       0.120500
     26 H4           5.7650     1.1960    -1.5320 ha         1 352       0.136000
     27 H6           5.2260    -1.9400     1.3730 ha         1 352       0.136000
     28 H7           2.8830    -1.2090     1.7490 ha         1 352       0.120500
     29 HN9          0.9890    -1.0290    -0.1940 hn         1 352       0.508000
     30 H10          1.4210     1.8630     0.0040 h1         1 352       0.094700
     31 H17         -4.7280     0.4310    -2.3500 hc         1 352       0.055033
     32 H17A        -3.2540    -0.1620    -3.1100 hc         1 352       0.055033
     33 H17B        -4.3320    -1.2960    -2.2930 hc         1 352       0.055033
     34 H19          1.9160     1.8400     2.4640 hc         1 352       0.049700
     35 H19A         0.1980     1.5750     2.1160 hc         1 352       0.049700
     36 H19B         1.2230     0.2080     2.5890 hc         1 352       0.049700
     37 HO20        -4.9690    -1.8150     1.1830 ho         1 352       0.447000
     38 H21         -4.9780     1.6430     0.4580 hc         1 352       0.050367
     39 H21A        -5.9220     0.4080    -0.4000 hc         1 352       0.050367
     40 H21B        -5.8270     0.3840     1.3610 hc         1 352       0.050367
@<TRIPOS>BOND
     1     1     2 1   
     2     1    13 1   
     3     1    20 1   
     4     1    21 1   
     5     2    22 1   
     6     2    23 1   
     7     2    24 1   
     8     3     4 ar  
     9     3     8 ar  
    10     3    25 1   
    11     4     5 ar  
    12     4    26 1   
    13     5     6 ar  
    14     5    18 1   
    15     6     7 ar  
    16     6    27 1   
    17     7     8 ar  
    18     7    28 1   
    19     8    10 1   
    20     9    10 1   
    21     9    11 1   
    22     9    29 1   
    23    10    19 1   
    24    10    30 1   
    25    11    12 1   
    26    11    15 2   
    27    12    13 1   
    28    13    14 1   
    29    13    17 1   
    30    14    15 1   
    31    14    16 2   
    32    17    31 1   
    33    17    32 1   
    34    17    33 1   
    35    19    34 1   
    36    19    35 1   
    37    19    36 1   
    38    20    37 1   
    39    21    38 1   
    40    21    39 1   
    41    21    40 1   
@<TRIPOS>SUBSTRUCTURE
     1 352         1 TEMP              0 ****  ****    0 ROOT
