@<TRIPOS>MOLECULE
353
   55    58     1     0     0
SMALL
bcc


@<TRIPOS>ATOM
      1 C1          -6.0140    -1.4020    -1.3030 ca         1 353      -0.080000
      2 C2          -5.7820    -1.8610     1.0520 ca         1 353      -0.080000
      3 C3           1.0560    -1.0290    -0.9060 ca         1 353      -0.204000
      4 C4           2.3870    -1.3470    -1.0900 ca         1 353      -0.073000
      5 C5          -6.7050    -2.5920    -1.4720 ca         1 353      -0.164500
      6 C6          -6.4700    -3.0540     0.8940 ca         1 353      -0.164500
      7 C7           4.9860    -1.3880     1.2740 ca         1 353      -0.370300
      8 C8           1.6650     1.1640    -0.1170 ca         1 353      -0.207000
      9 C9           5.9100    -1.8120     2.2090 ca         1 353       0.481200
     10 C10         -5.5600    -1.0430    -0.0440 ca         1 353      -0.005400
     11 C11          0.6720     0.2270    -0.4170 ca         1 353       0.128600
     12 C12          3.3710    -0.4180    -0.7970 ca         1 353      -0.000900
     13 C13          5.4650    -1.0960    -0.0010 ca         1 353       0.219100
     14 C14         -6.9170    -3.3960    -0.3680 ca         1 353       0.153900
     15 C15          2.9860     0.8190    -0.3120 ca         1 353       0.161900
     16 C16          6.8180    -1.2460    -0.2590 ca         1 353      -0.209900
     17 C17          7.6760    -1.6860     0.7640 ca         1 353       0.707200
     18 C18         -4.9970     2.5270     0.5100 cc         1 353      -0.340000
     19 C19         -5.5870     1.3200     0.3620 cd         1 353       0.079600
     20 C20         -2.8180     1.4620     0.2250 cd         1 353      -0.382400
     21 C21         -3.5840     2.6160     0.4360 cc         1 353       0.311100
     22 C22         -3.4850     0.2010     0.0270 c          1 353       0.728700
     23 C23         -1.3270     1.5450     0.2130 c          1 353       0.713300
     24 C24         -2.7200     6.1210     0.7610 c3         1 353      -0.096100
     25 C25         -3.7160     4.9890     0.7220 c3         1 353       0.143400
     26 N26          7.2070    -1.9590     1.9810 nb         1 353      -0.767000
     27 N27         -4.8730     0.2000     0.1300 n          1 353      -0.255200
     28 N28          8.9960    -1.8890     0.5440 nv         1 353      -0.945500
     29 N29         -0.6910     0.4470    -0.2820 ns         1 353      -0.484100
     30 O31         -0.7240     2.5260     0.6140 o          1 353      -0.582100
     31 O32          4.6960    -0.6880    -1.0270 os         1 353      -0.211200
     32 O33         -2.9750     3.7750     0.5490 os         1 353      -0.270900
     33 F34         -7.5850    -4.5460    -0.5280 f          1 353      -0.133900
     34 F35          3.9380     1.7110    -0.0150 f          1 353      -0.127900
     35 CL36         7.4360    -0.8940    -1.8320 cl         1 353      -0.091400
     36 H1          -5.8340    -0.7560    -2.1520 ha         1 353       0.149500
     37 H2          -5.4240    -1.5680     2.0300 ha         1 353       0.149500
     38 H3           0.3000    -1.7670    -1.1450 ha         1 353       0.145000
     39 H4           2.6670    -2.3210    -1.4700 ha         1 353       0.149000
     40 H5          -7.0700    -2.8870    -2.4470 ha         1 353       0.159000
     41 H6          -6.6560    -3.7030     1.7390 ha         1 353       0.159000
     42 H8           1.4270     2.1440     0.2620 ha         1 353       0.186000
     43 H9           5.5740    -2.0490     3.2130 h4         1 353       0.017100
     44 H18         -5.6230     3.3870     0.6830 ha         1 353       0.161000
     45 H19         -6.6590     1.2000     0.4170 h4         1 353       0.161000
     46 H24         -2.0280     6.0140     1.5960 hc         1 353       0.056700
     47 H24A        -2.1490     6.1790    -0.1650 hc         1 353       0.056700
     48 H24B        -3.2560     7.0620     0.8850 hc         1 353       0.056700
     49 H25         -4.2900     4.9440     1.6510 h1         1 353       0.039700
     50 H25A        -4.4160     5.1180    -0.1070 h1         1 353       0.039700
     51 HN28         9.4440    -1.4440    -0.2380 hn         1 353       0.429300
     52 HN2A         9.5720    -2.0020     1.3610 hn         1 353       0.429300
     53 HN29        -1.3060    -0.3400    -0.4920 hn         1 353       0.364500
     54 O30         -2.9360    -0.8760    -0.2250 o          1 353      -0.649500
     55 H7           3.9410    -1.3020     1.5360 ha         1 353       0.157000
@<TRIPOS>BOND
     1     1     5 ar  
     2     1    10 ar  
     3     1    36 1   
     4     2     6 ar  
     5     2    10 ar  
     6     2    37 1   
     7     3     4 ar  
     8     3    11 ar  
     9     3    38 1   
    10     4    12 ar  
    11     4    39 1   
    12     5    14 ar  
    13     5    40 1   
    14     6    14 ar  
    15     6    41 1   
    16     7     9 ar  
    17     7    13 ar  
    18     7    55 1   
    19     8    11 ar  
    20     8    15 ar  
    21     8    42 1   
    22     9    26 ar  
    23     9    43 1   
    24    10    27 1   
    25    11    29 1   
    26    12    15 ar  
    27    12    31 1   
    28    13    16 ar  
    29    13    31 1   
    30    14    33 1   
    31    15    34 1   
    32    16    17 ar  
    33    16    35 1   
    34    17    26 ar  
    35    17    28 1   
    36    18    19 2   
    37    18    21 1   
    38    18    44 1   
    39    19    27 1   
    40    19    45 1   
    41    20    21 2   
    42    20    22 1   
    43    20    23 1   
    44    21    32 1   
    45    22    27 1   
    46    22    54 2   
    47    23    29 1   
    48    23    30 2   
    49    24    25 1   
    50    24    46 1   
    51    24    47 1   
    52    24    48 1   
    53    25    32 1   
    54    25    49 1   
    55    25    50 1   
    56    28    51 1   
    57    28    52 1   
    58    29    53 1   
@<TRIPOS>SUBSTRUCTURE
     1 353         1 TEMP              0 ****  ****    0 ROOT
