@<TRIPOS>MOLECULE
353
   55    58     1     0     0
SMALL
No Charge or Current Charge


@<TRIPOS>ATOM
      1 C1          -6.7510    -1.0530    -1.1980 ca         1 353      -0.062000
      2 C2          -5.6860    -2.0480     0.7550 ca         1 353      -0.062000
      3 C3           1.0210    -1.3230    -0.9640 ca         1 353      -0.186000
      4 C4           2.3510    -1.7500    -1.1290 ca         1 353      -0.055000
      5 C5          -7.5900    -2.1760    -1.3110 ca         1 353      -0.146500
      6 C6          -6.5270    -3.1700     0.6410 ca         1 353      -0.146500
      7 C7           5.2550    -1.4800     1.4010 ca         1 353      -0.287000
      8 C8           1.8000     0.8200    -0.1280 ca         1 353      -0.189000
      9 C9           6.2420    -1.4730     2.3950 ca         1 353       0.415900
     10 C10         -5.7970    -0.9820    -0.1600 ca         1 353      -0.005400
     11 C11          0.7290    -0.0380    -0.4680 ca         1 353       0.036000
     12 C12          3.4100    -0.8960    -0.7850 ca         1 353      -0.000900
     13 C13          5.6370    -1.3270     0.0570 ca         1 353       0.219100
     14 C14         -7.4760    -3.2300    -0.3910 ca         1 353       0.189000
     15 C15          3.1280     0.3960    -0.2910 ca         1 353       0.197000
     16 C16          7.0000    -1.1920    -0.2400 ca         1 353      -0.053000
     17 C17          7.8950    -1.2050     0.8450 ca         1 353       0.641900
     18 C18         -5.0060     2.4870     0.4450 cc         1 353      -0.390000
     19 C19         -5.6590     1.2990     0.2610 cd         1 353       0.029600
     20 C20         -2.8030     1.4210     0.0580 cd         1 353      -0.382400
     21 C21         -3.5780     2.5440     0.3380 cc         1 353       0.311100
     22 C22         -3.5260     0.1220    -0.1400 c          1 353       0.586200
     23 C23         -1.2940     1.5000    -0.0420 c          1 353       0.646300
     24 C24         -2.5140     6.0540     0.9530 c3         1 353      -0.096100
     25 C25         -3.5870     4.9620     0.8240 c3         1 353       0.166600
     26 N26          7.5570    -1.3330     2.1220 nb         1 353      -0.767000
     27 N27         -4.9320     0.1600    -0.0420 n          1 353      -0.188200
     28 N28          9.2250    -1.0750     0.7390 nv         1 353      -1.055900
     29 N29         -0.6420     0.3080    -0.3270 ns         1 353      -0.158000
     30 O31         -0.6530     2.5320     0.1020 o          1 353      -0.582100
     31 O32          4.7050    -1.3350    -0.9600 os         1 353      -0.211200
     32 O33         -2.9120     3.7310     0.5220 os         1 353      -0.294100
     33 F34         -8.2820    -4.3080    -0.5010 f          1 353      -0.169000
     34 F35          4.1320     1.2470     0.0250 f          1 353      -0.163000
     35 Cl36         7.5600    -1.0000    -1.9120 cl         1 353      -0.183000
     36 H1          -6.8360    -0.2420    -1.9180 ha         1 353       0.131500
     37 H2          -4.9500    -2.0040     1.5550 ha         1 353       0.131500
     38 H3           0.2110    -1.9990    -1.2290 ha         1 353       0.127000
     39 H4           2.5600    -2.7440    -1.5170 ha         1 353       0.131000
     40 H5          -8.3250    -2.2320    -2.1100 ha         1 353       0.141000
     41 H6          -6.4430    -3.9910     1.3480 ha         1 353       0.141000
     42 H8           1.6300     1.8140     0.2690 ha         1 353       0.168000
     43 H9           5.9730    -1.5850     3.4450 h4         1 353       0.017100
     44 H18         -5.5840     3.3750     0.6770 ha         1 353       0.211000
     45 H19         -6.7370     1.1650     0.3410 h4         1 353       0.211000
     46 H24         -1.8100     5.8100     1.7580 hc         1 353       0.056700
     47 H24A        -1.9540     6.1580     0.0170 hc         1 353       0.056700
     48 H24B        -2.9800     7.0190     1.1850 hc         1 353       0.056700
     49 H25         -4.1410     4.8830     1.7680 h1         1 353       0.039700
     50 H25A        -4.2860     5.2320     0.0210 h1         1 353       0.039700
     51 HN28         9.5770    -0.6480    -0.1120 hn         1 353       0.484500
     52 HN2A         9.7020    -0.8390     1.6000 hn         1 353       0.484500
     53 HN29        -1.2670    -0.4760    -0.4560 hn         1 353       0.198000
     54 O30         -2.9760    -0.9430    -0.3850 o          1 353      -0.574000
     55 H7           4.2140    -1.6060     1.6810 ha         1 353       0.139000
@<TRIPOS>BOND
     1     1     5 ar  
     2     1    10 ar  
     3     1    36 1   
     4     2     6 ar  
     5     2    10 ar  
     6     2    37 1   
     7     3     4 ar  
     8     3    11 ar  
     9     3    38 1   
    10     4    12 ar  
    11     4    39 1   
    12     5    14 ar  
    13     5    40 1   
    14     6    14 ar  
    15     6    41 1   
    16     7     9 ar  
    17     7    13 ar  
    18     7    55 1   
    19     8    11 ar  
    20     8    15 ar  
    21     8    42 1   
    22     9    26 ar  
    23     9    43 1   
    24    10    27 1   
    25    11    29 1   
    26    12    15 ar  
    27    12    31 1   
    28    13    16 ar  
    29    13    31 1   
    30    14    33 1   
    31    15    34 1   
    32    16    17 ar  
    33    16    35 1   
    34    17    26 ar  
    35    17    28 1   
    36    18    19 2   
    37    18    21 1   
    38    18    44 1   
    39    19    27 1   
    40    19    45 1   
    41    20    21 2   
    42    20    22 1   
    43    20    23 1   
    44    21    32 1   
    45    22    27 1   
    46    22    54 2   
    47    23    29 1   
    48    23    30 2   
    49    24    25 1   
    50    24    46 1   
    51    24    47 1   
    52    24    48 1   
    53    25    32 1   
    54    25    49 1   
    55    25    50 1   
    56    28    51 1   
    57    28    52 1   
    58    29    53 1   
@<TRIPOS>SUBSTRUCTURE
     1 353         1 TEMP              0 ****  ****    0 ROOT
