@<TRIPOS>MOLECULE
355
   75    80     1     0     0
SMALL
abcg2


@<TRIPOS>ATOM
      1 C1           9.5360     0.5930    -0.6370 c3         1 355      -0.047800
      2 C2           8.2520     0.9910     0.0280 cc         1 355      -0.013300
      3 C3           8.3220     1.6260     1.2300 cd         1 355      -0.199000
      4 C4           7.1690     1.9550     1.9670 cd         1 355      -0.029000
      5 C5           5.9580     1.5790     1.4920 cc         1 355      -0.149000
      6 C6           5.8460     0.9090     0.2510 cc         1 355       0.104000
      7 N1           4.6420     0.5410    -0.1360 nd         1 355      -0.374600
      8 C7           4.5090    -0.0770    -1.3050 cd         1 355       0.204400
      9 C8           3.1140    -0.4910    -1.6940 c3         1 355       0.142200
     10 N2           2.2720    -0.7580    -0.5470 n          1 355      -0.283000
     11 C9           1.4290     0.2430    -0.1360 c          1 355       0.630000
     12 O1           1.3850     1.3170    -0.7000 o          1 355      -0.549000
     13 N3           0.5960    -0.0280     0.9390 n          1 355      -0.367400
     14 C10         -0.3540     1.0240     1.3130 c3         1 355       0.102000
     15 C11         -1.5520     1.1500     0.3740 c6         1 355      -0.079700
     16 C12         -2.4730     2.2500     0.8990 c6         1 355      -0.071400
     17 C13         -3.6880     2.4470    -0.0010 c6         1 355      -0.064900
     18 C14         -4.4630     1.1400    -0.1710 c6         1 355      -0.138700
     19 C15         -3.5400     0.0370    -0.6990 c6         1 355      -0.064900
     20 C16         -2.3280    -0.1540     0.2080 c6         1 355      -0.071400
     21 C17         -5.6410     1.3250    -1.1060 c          1 355       0.596100
     22 O2          -5.5130     1.7820    -2.2360 o          1 355      -0.609100
     23 N4          -6.8300     0.9360    -0.6230 ns         1 355      -0.507900
     24 C18         -8.0580     1.0320    -1.3900 c3         1 355       0.152300
     25 C19         -9.1720     0.3360    -0.6600 ca         1 355      -0.116300
     26 C20         -9.9850     1.0390     0.2250 ca         1 355      -0.095000
     27 C21        -10.9920     0.3910     0.9290 ca         1 355      -0.113500
     28 C22        -11.1950    -0.9710     0.7540 ca         1 355      -0.101000
     29 C23        -10.3880    -1.6810    -0.1260 ca         1 355      -0.113500
     30 C24         -9.3820    -1.0310    -0.8260 ca         1 355      -0.095000
     31 C25          0.6160    -1.2000     1.6720 c          1 355       0.596600
     32 O3          -0.1440    -1.3830     2.6020 o          1 355      -0.533000
     33 C26          1.6180    -2.1820     1.2660 ca         1 355      -0.218600
     34 C27          2.4380    -1.9330     0.1640 ca         1 355       0.131600
     35 C28          3.4000    -2.8840    -0.1920 ca         1 355      -0.174000
     36 C29          3.5200    -4.0500     0.5400 ca         1 355      -0.046000
     37 C30          2.6980    -4.3040     1.6350 ca         1 355      -0.158000
     38 C31          1.7520    -3.3660     1.9920 ca         1 355      -0.015000
     39 C32          5.5550    -0.2940    -2.1550 cc         1 355      -0.425200
     40 C33          6.8600     0.1580    -1.8370 c          1 355       0.529000
     41 O4           7.8120     0.1300    -2.5930 o          1 355      -0.532000
     42 N5           6.9970     0.6830    -0.4970 n          1 355       0.006200
     43 H1          10.3390     0.7800     0.0730 hc         1 355       0.065700
     44 H2           9.5610    -0.4620    -0.8960 hc         1 355       0.065700
     45 H3           9.7460     1.1650    -1.5370 hc         1 355       0.065700
     46 H4           9.2980     1.8560     1.6310 ha         1 355       0.133000
     47 H5           7.2600     2.4740     2.9110 ha         1 355       0.131000
     48 H6           5.0370     1.7650     2.0260 ha         1 355       0.154000
     49 H7           2.6590     0.3070    -2.2770 h1         1 355       0.088700
     50 H8           3.1350    -1.3690    -2.3400 h1         1 355       0.088700
     51 H9          -0.7000     0.7970     2.3190 h1         1 355       0.070200
     52 H10          0.1830     1.9700     1.3610 h1         1 355       0.070200
     53 H11         -1.1930     1.4600    -0.6130 hc         1 355       0.070700
     54 H12         -2.8080     1.9930     1.9100 hc         1 355       0.043450
     55 H13         -1.9230     3.1910     0.9830 hc         1 355       0.043450
     56 H14         -4.3380     3.2170     0.4210 hc         1 355       0.052700
     57 H15         -3.3640     2.8060    -0.9820 hc         1 355       0.052700
     58 H16         -4.8320     0.8300     0.8140 hc         1 355       0.047700
     59 H17         -4.0910    -0.9030    -0.7840 hc         1 355       0.052700
     60 H18         -3.2030     0.3000    -1.7060 hc         1 355       0.052700
     61 H19         -1.6900    -0.9310    -0.2210 hc         1 355       0.043450
     62 H20         -2.6530    -0.5180     1.1880 hc         1 355       0.043450
     63 H21         -6.8860     0.5990     0.3240 hn         1 355       0.317500
     64 H22         -8.3190     2.0810    -1.5600 h1         1 355       0.057200
     65 H23         -7.9080     0.5780    -2.3720 h1         1 355       0.057200
     66 H24         -9.8310     2.1030     0.3620 ha         1 355       0.116000
     67 H25        -11.6180     0.9520     1.6100 ha         1 355       0.115000
     68 H26        -11.9820    -1.4780     1.2980 ha         1 355       0.114000
     69 H27        -10.5440    -2.7430    -0.2690 ha         1 355       0.115000
     70 H28         -8.7570    -1.5900    -1.5130 ha         1 355       0.116000
     71 H29          4.0670    -2.7320    -1.0270 ha         1 355       0.126000
     72 H30          4.2710    -4.7730     0.2500 ha         1 355       0.117000
     73 H31          2.8010    -5.2200     2.1990 ha         1 355       0.123000
     74 H32          1.1040    -3.5350     2.8410 ha         1 355       0.139000
     75 H33          5.4160    -0.7680    -3.1170 ha         1 355       0.215000
@<TRIPOS>BOND
     1     1     2 1   
     2     1    43 1   
     3     1    44 1   
     4     1    45 1   
     5     2     3 2   
     6     2    42 1   
     7     3     4 1   
     8     3    46 1   
     9     4     5 2   
    10     4    47 1   
    11     5     6 1   
    12     5    48 1   
    13     6     7 2   
    14     6    42 1   
    15     7     8 1   
    16     8     9 1   
    17     8    39 2   
    18     9    10 1   
    19     9    49 1   
    20     9    50 1   
    21    10    11 1   
    22    10    34 1   
    23    11    12 2   
    24    11    13 1   
    25    13    14 1   
    26    13    31 1   
    27    14    15 1   
    28    14    51 1   
    29    14    52 1   
    30    15    16 1   
    31    15    20 1   
    32    15    53 1   
    33    16    17 1   
    34    16    54 1   
    35    16    55 1   
    36    17    18 1   
    37    17    56 1   
    38    17    57 1   
    39    18    19 1   
    40    18    21 1   
    41    18    58 1   
    42    19    20 1   
    43    19    59 1   
    44    19    60 1   
    45    20    61 1   
    46    20    62 1   
    47    21    22 2   
    48    21    23 1   
    49    23    24 1   
    50    23    63 1   
    51    24    25 1   
    52    24    64 1   
    53    24    65 1   
    54    25    26 ar  
    55    25    30 ar  
    56    26    27 ar  
    57    26    66 1   
    58    27    28 ar  
    59    27    67 1   
    60    28    29 ar  
    61    28    68 1   
    62    29    30 ar  
    63    29    69 1   
    64    30    70 1   
    65    31    32 2   
    66    31    33 1   
    67    33    34 ar  
    68    33    38 ar  
    69    34    35 ar  
    70    35    36 ar  
    71    35    71 1   
    72    36    37 ar  
    73    36    72 1   
    74    37    38 ar  
    75    37    73 1   
    76    38    74 1   
    77    39    40 1   
    78    39    75 1   
    79    40    41 2   
    80    40    42 1   
@<TRIPOS>SUBSTRUCTURE
     1 355         1 TEMP              0 ****  ****    0 ROOT
