@<TRIPOS>MOLECULE
355
   75    80     1     0     0
SMALL
No Charge or Current Charge


@<TRIPOS>ATOM
      1 C1           9.9320     0.5240     0.3660 c3         1 355      -0.047800
      2 C2           8.5580     1.0300     0.7670 cc         1 355      -0.013300
      3 C3           8.4890     1.8260     1.8950 cd         1 355      -0.199000
      4 C4           7.2370     2.3310     2.3430 cd         1 355      -0.029000
      5 C5           6.1130     2.0060     1.6330 cc         1 355      -0.149000
      6 C6           6.1300     1.1860     0.4540 cc         1 355       0.104000
      7 N1           4.9510     0.9580    -0.1240 nd         1 355      -0.374600
      8 C7           4.9190     0.1700    -1.2700 cd         1 355       0.204400
      9 C8           3.5730    -0.0960    -1.9130 c3         1 355       0.142200
     10 N2           2.5220    -0.5670    -0.9590 n          1 355      -0.283000
     11 C9           1.5230     0.3500    -0.5660 c          1 355       0.630000
     12 O1           1.4530     1.4660    -1.0660 o          1 355      -0.549000
     13 N3           0.6020    -0.0520     0.4130 n          1 355      -0.367400
     14 C10         -0.4330     0.9340     0.8460 c3         1 355       0.102000
     15 C11         -1.7150     0.9750    -0.0400 c6         1 355      -0.079700
     16 C12         -2.6750     2.1020     0.4370 c6         1 355      -0.071400
     17 C13         -3.9380     2.1990    -0.4550 c6         1 355      -0.064900
     18 C14         -4.6600     0.8310    -0.5510 c6         1 355      -0.138700
     19 C15         -3.7230    -0.3270    -0.9820 c6         1 355      -0.064900
     20 C16         -2.4610    -0.3910    -0.0860 c6         1 355      -0.071400
     21 C17         -5.9710     0.8880    -1.3630 c          1 355       0.596100
     22 O2          -5.9860     1.1370    -2.5600 o          1 355      -0.609100
     23 N4          -7.1260     0.6430    -0.6580 ns         1 355      -0.507900
     24 C18         -8.4640     0.6500    -1.2400 c3         1 355       0.152300
     25 C19         -9.5160     0.3390    -0.1880 ca         1 355      -0.116300
     26 C20        -10.1080     1.3810     0.5530 ca         1 355      -0.095000
     27 C21        -11.0780     1.0930     1.5290 ca         1 355      -0.113500
     28 C22        -11.4600    -0.2380     1.7710 ca         1 355      -0.101000
     29 C23        -10.8700    -1.2800     1.0370 ca         1 355      -0.113500
     30 C24         -9.9010    -0.9930     0.0600 ca         1 355      -0.095000
     31 C25          0.6460    -1.2970     1.0540 c          1 355       0.596600
     32 O3          -0.1400    -1.5980     1.9430 o          1 355      -0.533000
     33 C26          1.6990    -2.2600     0.6060 ca         1 355      -0.218600
     34 C27          2.6280    -1.8780    -0.3770 ca         1 355       0.131600
     35 C28          3.5760    -2.8310    -0.8250 ca         1 355      -0.174000
     36 C29          3.6290    -4.1150    -0.2620 ca         1 355      -0.046000
     37 C30          2.7220    -4.4740     0.7430 ca         1 355      -0.158000
     38 C31          1.7560    -3.5530     1.1730 ca         1 355      -0.015000
     39 C32          6.1070    -0.3180    -1.7560 cc         1 355      -0.425200
     40 C33          7.4110    -0.0920    -1.1600 c          1 355       0.529000
     41 O4           8.4050    -0.5780    -1.6830 o          1 355      -0.532000
     42 N5           7.3850     0.7020     0.0160 n          1 355       0.006200
     43 H1          10.7090     0.8540     1.0650 hc         1 355       0.065700
     44 H2           9.9670    -0.5710     0.3560 hc         1 355       0.065700
     45 H3          10.2230     0.8990    -0.6230 hc         1 355       0.065700
     46 H4           9.3860     2.0740     2.4560 ha         1 355       0.133000
     47 H5           7.1720     2.9550     3.2300 ha         1 355       0.131000
     48 H6           5.1520     2.3830     1.9710 ha         1 355       0.154000
     49 H7           3.2610     0.8230    -2.4220 h1         1 355       0.088700
     50 H8           3.6880    -0.8390    -2.7100 h1         1 355       0.088700
     51 H9          -0.7340     0.7340     1.8830 h1         1 355       0.070200
     52 H10          0.0120     1.9380     0.8600 h1         1 355       0.070200
     53 H11         -1.3770     1.2200    -1.0570 hc         1 355       0.070700
     54 H12         -2.9750     1.9200     1.4780 hc         1 355       0.043450
     55 H13         -2.1520     3.0690     0.4310 hc         1 355       0.043450
     56 H14         -4.6210     2.9590    -0.0500 hc         1 355       0.052700
     57 H15         -3.6530     2.5400    -1.4600 hc         1 355       0.052700
     58 H16         -4.9690     0.5900     0.4760 hc         1 355       0.047700
     59 H17         -4.2600    -1.2850    -0.9350 hc         1 355       0.052700
     60 H18         -3.4220    -0.1890    -2.0300 hc         1 355       0.052700
     61 H19         -1.7950    -1.1760    -0.4690 hc         1 355       0.043450
     62 H20         -2.7470    -0.6940     0.9310 hc         1 355       0.043450
     63 H21         -7.0320     0.4440     0.3300 hn         1 355       0.317500
     64 H22         -8.6570     1.6370    -1.6820 h1         1 355       0.057200
     65 H23         -8.5080    -0.0970    -2.0450 h1         1 355       0.057200
     66 H24         -9.8170     2.4140     0.3740 ha         1 355       0.116000
     67 H25        -11.5330     1.9010     2.0990 ha         1 355       0.115000
     68 H26        -12.2100    -0.4600     2.5270 ha         1 355       0.114000
     69 H27        -11.1640    -2.3110     1.2240 ha         1 355       0.115000
     70 H28         -9.4470    -1.8070    -0.5030 ha         1 355       0.116000
     71 H29          4.2920    -2.5980    -1.6050 ha         1 355       0.126000
     72 H30          4.3710    -4.8320    -0.6070 ha         1 355       0.117000
     73 H31          2.7590    -5.4690     1.1810 ha         1 355       0.123000
     74 H32          1.0470    -3.8530     1.9430 ha         1 355       0.139000
     75 H33          6.1270    -0.9270    -2.6520 ha         1 355       0.215000
@<TRIPOS>BOND
     1     1     2 1   
     2     1    43 1   
     3     1    44 1   
     4     1    45 1   
     5     2     3 2   
     6     2    42 1   
     7     3     4 1   
     8     3    46 1   
     9     4     5 2   
    10     4    47 1   
    11     5     6 1   
    12     5    48 1   
    13     6     7 2   
    14     6    42 1   
    15     7     8 1   
    16     8     9 1   
    17     8    39 2   
    18     9    10 1   
    19     9    49 1   
    20     9    50 1   
    21    10    11 1   
    22    10    34 1   
    23    11    12 2   
    24    11    13 1   
    25    13    14 1   
    26    13    31 1   
    27    14    15 1   
    28    14    51 1   
    29    14    52 1   
    30    15    16 1   
    31    15    20 1   
    32    15    53 1   
    33    16    17 1   
    34    16    54 1   
    35    16    55 1   
    36    17    18 1   
    37    17    56 1   
    38    17    57 1   
    39    18    19 1   
    40    18    21 1   
    41    18    58 1   
    42    19    20 1   
    43    19    59 1   
    44    19    60 1   
    45    20    61 1   
    46    20    62 1   
    47    21    22 2   
    48    21    23 1   
    49    23    24 1   
    50    23    63 1   
    51    24    25 1   
    52    24    64 1   
    53    24    65 1   
    54    25    26 ar  
    55    25    30 ar  
    56    26    27 ar  
    57    26    66 1   
    58    27    28 ar  
    59    27    67 1   
    60    28    29 ar  
    61    28    68 1   
    62    29    30 ar  
    63    29    69 1   
    64    30    70 1   
    65    31    32 2   
    66    31    33 1   
    67    33    34 ar  
    68    33    38 ar  
    69    34    35 ar  
    70    35    36 ar  
    71    35    71 1   
    72    36    37 ar  
    73    36    72 1   
    74    37    38 ar  
    75    37    73 1   
    76    38    74 1   
    77    39    40 1   
    78    39    75 1   
    79    40    41 2   
    80    40    42 1   
@<TRIPOS>SUBSTRUCTURE
     1 355         1 TEMP              0 ****  ****    0 ROOT
