@<TRIPOS>MOLECULE
356
   63    67     1     0     0
SMALL
No Charge or Current Charge


@<TRIPOS>ATOM
      1 C1          -1.0390     0.4930    -0.5110 cc         1 356      -0.349600
      2 N2          -2.2560     0.4990     0.1540 na         1 356      -0.133500
      3 C3          -1.0590    -0.6080    -1.3020 cd         1 356       0.461900
      4 C4           0.1170     1.3880    -0.4650 c          1 356       0.643600
      5 C5          -2.9470    -0.6110    -0.2940 cc         1 356       0.695400
      6 C6          -2.6900     1.4450     1.1970 c3         1 356       0.174700
      7 N7          -2.2350    -1.3010    -1.1560 nd         1 356      -0.751000
      8 N8           0.0000    -0.9350    -2.1110 n          1 356      -0.358300
      9 N9           1.1720     1.0130    -1.3070 n          1 356      -0.356400
     10 O10          0.1590     2.3770     0.2530 o          1 356      -0.538000
     11 N11         -4.1980    -1.0080     0.1110 nh         1 356      -0.768300
     12 C12         -3.1750     2.7240     0.6560 c1         1 356      -0.181100
     13 C13          1.1470    -0.1290    -2.1260 c          1 356       0.627000
     14 C14         -0.0320    -2.1440    -2.9700 c3         1 356       0.103300
     15 C15          2.4110     1.8490    -1.3070 c3         1 356       0.056700
     16 C16         -4.5550    -2.4570     0.1330 c6         1 356       0.216800
     17 C17         -5.3720    -0.1290    -0.1280 c6         1 356       0.197800
     18 C18         -3.5790     3.7600     0.1810 c1         1 356      -0.088100
     19 O19          2.1010    -0.4180    -2.8370 o          1 356      -0.556000
     20 C20          3.5270     1.2950    -0.4270 ca         1 356       0.133300
     21 C21         -5.6470    -2.7570     1.2160 c6         1 356       0.146500
     22 C22         -6.4500    -0.3550     0.9590 c6         1 356      -0.073400
     23 C23         -4.0670     5.0010    -0.4280 c3         1 356      -0.012000
     24 N24          3.2580     1.1560     0.8880 nb         1 356      -0.167000
     25 N25          4.6910     0.9900    -1.0360 nb         1 356      -0.192000
     26 C26         -6.8820    -1.8430     1.0190 c6         1 356      -0.114400
     27 N27         -6.0740    -4.1810     1.2240 n8         1 356      -0.987200
     28 C28          4.2330     0.6620     1.6780 ca         1 356       0.038000
     29 C29          5.6780     0.4940    -0.2610 ca         1 356       0.164300
     30 C30          5.4920     0.3080     1.1310 ca         1 356      -0.145000
     31 C31          4.0120     0.4900     3.0580 ca         1 356      -0.089000
     32 C32          6.9790     0.1560    -0.9770 c3         1 356      -0.157400
     33 C33          6.5050    -0.2100     1.9670 ca         1 356      -0.073000
     34 C34          5.0220    -0.0250     3.8870 ca         1 356      -0.088000
     35 C35          6.2670    -0.3740     3.3420 ca         1 356      -0.117000
     36 H61         -3.4840     0.9840     1.7980 h1         1 356       0.089200
     37 H62         -1.8460     1.6390     1.8700 h1         1 356       0.089200
     38 H141         0.6910    -2.8800    -2.5960 h1         1 356       0.057033
     39 H142        -1.0280    -2.6030    -2.9790 h1         1 356       0.057033
     40 H143         0.2310    -1.8760    -4.0010 h1         1 356       0.057033
     41 H151         2.7770     1.9470    -2.3380 h1         1 356       0.096700
     42 H152         2.1840     2.8700    -0.9770 h1         1 356       0.096700
     43 H161        -4.9240    -2.7660    -0.8560 h1         1 356       0.060200
     44 H162        -3.6670    -3.0680     0.3530 h1         1 356       0.060200
     45 H171        -5.0850     0.9310    -0.1380 h1         1 356       0.048700
     46 H172        -5.8040    -0.3470    -1.1160 h1         1 356       0.048700
     47 H21         -5.2060    -2.5390     2.2010 h1         1 356       0.070700
     48 H221        -6.0570    -0.0410     1.9360 hc         1 356       0.051700
     49 H222        -7.3220     0.2800     0.7540 hc         1 356       0.051700
     50 H231        -4.4290     5.6880     0.3460 hc         1 356       0.056033
     51 H232        -3.2620     5.4940    -0.9840 hc         1 356       0.056033
     52 H233        -4.8900     4.7880    -1.1200 hc         1 356       0.056033
     53 H261        -7.4040    -2.1080     0.0880 hc         1 356       0.041700
     54 H262        -7.5990    -1.9870     1.8380 hc         1 356       0.041700
     55 H271        -6.7770    -4.3080     1.9620 hn         1 356       0.394000
     56 H272        -6.5980    -4.3730     0.3630 hn         1 356       0.394000
     57 H31          3.0500     0.7590     3.4880 ha         1 356       0.135000
     58 H321         7.2200    -0.9080    -0.8680 hc         1 356       0.058367
     59 H322         6.9230     0.3710    -2.0510 hc         1 356       0.058367
     60 H323         7.8130     0.7390    -0.5690 hc         1 356       0.058367
     61 H33          7.4780    -0.4880     1.5680 ha         1 356       0.117000
     62 H34          4.8390    -0.1520     4.9520 ha         1 356       0.117000
     63 H35          7.0490    -0.7730     3.9850 ha         1 356       0.116000
@<TRIPOS>BOND
     1     1     2 1   
     2     1     3 2   
     3     1     4 1   
     4     2     5 1   
     5     2     6 1   
     6     3     7 1   
     7     3     8 1   
     8     4     9 1   
     9     4    10 2   
    10     5     7 2   
    11     5    11 1   
    12     6    12 1   
    13     6    36 1   
    14     6    37 1   
    15     8    13 1   
    16     8    14 1   
    17     9    13 1   
    18     9    15 1   
    19    11    16 1   
    20    11    17 1   
    21    12    18 3   
    22    13    19 2   
    23    14    38 1   
    24    14    39 1   
    25    14    40 1   
    26    15    20 1   
    27    15    41 1   
    28    15    42 1   
    29    16    21 1   
    30    16    43 1   
    31    16    44 1   
    32    17    22 1   
    33    17    45 1   
    34    17    46 1   
    35    18    23 1   
    36    20    24 ar  
    37    20    25 ar  
    38    21    26 1   
    39    21    27 1   
    40    21    47 1   
    41    22    26 1   
    42    22    48 1   
    43    22    49 1   
    44    23    50 1   
    45    23    51 1   
    46    23    52 1   
    47    24    28 ar  
    48    25    29 ar  
    49    26    53 1   
    50    26    54 1   
    51    27    55 1   
    52    27    56 1   
    53    28    30 ar  
    54    28    31 ar  
    55    29    30 ar  
    56    29    32 1   
    57    30    33 ar  
    58    31    34 ar  
    59    31    57 1   
    60    32    58 1   
    61    32    59 1   
    62    32    60 1   
    63    33    35 ar  
    64    33    61 1   
    65    34    35 ar  
    66    34    62 1   
    67    35    63 1   
@<TRIPOS>SUBSTRUCTURE
     1 356         1 TEMP              0 ****  ****    0 ROOT
