@<TRIPOS>MOLECULE
356
   63    67     1     0     0
SMALL
abcg2


@<TRIPOS>ATOM
      1 C1          -0.9810     0.4080    -0.6090 cc         1 356      -0.349600
      2 N2          -2.1800     0.5190     0.0720 na         1 356      -0.133500
      3 C3          -1.0290    -0.8240    -1.2030 cd         1 356       0.461900
      4 C4           0.1360     1.2710    -0.7140 c          1 356       0.643600
      5 C5          -2.8670    -0.6180    -0.1830 cc         1 356       0.695400
      6 C6          -2.5420     1.5630     1.0110 c3         1 356       0.174700
      7 N7          -2.1850    -1.4570    -0.9530 nd         1 356      -0.751000
      8 N8           0.0030    -1.3000    -1.9570 n          1 356      -0.358300
      9 N9           1.1300     0.7300    -1.5450 n          1 356      -0.356400
     10 O10          0.2750     2.3580    -0.1780 o          1 356      -0.538000
     11 N11         -4.0980    -0.8620     0.3500 nh         1 356      -0.768300
     12 C12         -3.0340     2.7720     0.3570 c1         1 356      -0.181100
     13 C13          1.1310    -0.5380    -2.1140 c          1 356       0.627000
     14 C14         -0.0410    -2.6210    -2.5620 c3         1 356       0.103300
     15 C15          2.3650     1.4710    -1.6660 c3         1 356       0.056700
     16 C16         -4.4880    -2.2600     0.4620 c6         1 356       0.216800
     17 C17         -5.2050     0.0180    -0.0350 c6         1 356       0.197800
     18 C18         -3.4490     3.7660    -0.1760 c1         1 356      -0.088100
     19 O19          2.0890    -0.9500    -2.7390 o          1 356      -0.556000
     20 C20          3.3920     1.0440    -0.6510 ca         1 356       0.133300
     21 C21         -5.5800    -2.4140     1.5160 c6         1 356       0.146500
     22 C22         -6.3060    -0.0540     1.0050 c6         1 356      -0.073400
     23 C23         -3.9470     4.9680    -0.8250 c3         1 356      -0.012000
     24 N24          3.0650     0.1650     0.2440 nb         1 356      -0.167000
     25 N25          4.5910     1.6550    -0.7830 nb         1 356      -0.192000
     26 C26         -6.7610    -1.4960     1.2000 c6         1 356      -0.114400
     27 N27         -5.9180    -3.8240     1.6250 n8         1 356      -0.987200
     28 C28          4.0220    -0.1850     1.1390 ca         1 356       0.038000
     29 C29          5.5380     1.3470     0.0630 ca         1 356       0.164300
     30 C30          5.3100     0.3900     1.0940 ca         1 356      -0.145000
     31 C31          3.7240    -1.1400     2.1320 ca         1 356      -0.089000
     32 C32          6.8620     2.0220    -0.0850 c3         1 356      -0.157400
     33 C33          6.2800     0.0010     2.0400 ca         1 356      -0.073000
     34 C34          4.6840    -1.5020     3.0400 ca         1 356      -0.088000
     35 C35          5.9700    -0.9300     2.9960 ca         1 356      -0.117000
     36 H61         -3.2990     1.1510     1.6810 h1         1 356       0.089200
     37 H62         -1.6710     1.7940     1.6230 h1         1 356       0.089200
     38 H141         0.6960    -3.2810    -2.1090 h1         1 356       0.057033
     39 H142        -1.0300    -3.0360    -2.4020 h1         1 356       0.057033
     40 H143         0.1460    -2.5570    -3.6310 h1         1 356       0.057033
     41 H151         2.7720     1.3550    -2.6690 h1         1 356       0.096700
     42 H152         2.1540     2.5310    -1.5350 h1         1 356       0.096700
     43 H161        -4.8480    -2.6480    -0.5030 h1         1 356       0.060200
     44 H162        -3.6220    -2.8540     0.7510 h1         1 356       0.060200
     45 H171        -4.8470     1.0410    -0.1450 h1         1 356       0.048700
     46 H172        -5.5950    -0.2900    -1.0160 h1         1 356       0.048700
     47 H21         -5.1520    -2.1050     2.4760 h1         1 356       0.070700
     48 H221        -5.9390     0.3560     1.9500 hc         1 356       0.051700
     49 H222        -7.1410     0.5730     0.6850 hc         1 356       0.051700
     50 H231        -4.4690     5.6060    -0.1120 hc         1 356       0.056033
     51 H232        -3.1320     5.5460    -1.2600 hc         1 356       0.056033
     52 H233        -4.6460     4.7180    -1.6230 hc         1 356       0.056033
     53 H261        -7.2460    -1.8500     0.2820 hc         1 356       0.041700
     54 H262        -7.5050    -1.5610     1.9980 hc         1 356       0.041700
     55 H271        -6.5730    -3.9540     2.3860 hn         1 356       0.394000
     56 H272        -6.4150    -4.1170     0.7900 hn         1 356       0.394000
     57 H31          2.7320    -1.5740     2.1560 ha         1 356       0.135000
     58 H321         7.6560     1.2920    -0.2480 hc         1 356       0.058367
     59 H322         6.8440     2.7100    -0.9260 hc         1 356       0.058367
     60 H323         7.1210     2.5780     0.8170 hc         1 356       0.058367
     61 H33          7.2710     0.4360     2.0130 ha         1 356       0.117000
     62 H34          4.4560    -2.2350     3.8030 ha         1 356       0.117000
     63 H35          6.7140    -1.2300     3.7220 ha         1 356       0.116000
@<TRIPOS>BOND
     1     1     2 1   
     2     1     3 2   
     3     1     4 1   
     4     2     5 1   
     5     2     6 1   
     6     3     7 1   
     7     3     8 1   
     8     4     9 1   
     9     4    10 2   
    10     5     7 2   
    11     5    11 1   
    12     6    12 1   
    13     6    36 1   
    14     6    37 1   
    15     8    13 1   
    16     8    14 1   
    17     9    13 1   
    18     9    15 1   
    19    11    16 1   
    20    11    17 1   
    21    12    18 3   
    22    13    19 2   
    23    14    38 1   
    24    14    39 1   
    25    14    40 1   
    26    15    20 1   
    27    15    41 1   
    28    15    42 1   
    29    16    21 1   
    30    16    43 1   
    31    16    44 1   
    32    17    22 1   
    33    17    45 1   
    34    17    46 1   
    35    18    23 1   
    36    20    24 ar  
    37    20    25 ar  
    38    21    26 1   
    39    21    27 1   
    40    21    47 1   
    41    22    26 1   
    42    22    48 1   
    43    22    49 1   
    44    23    50 1   
    45    23    51 1   
    46    23    52 1   
    47    24    28 ar  
    48    25    29 ar  
    49    26    53 1   
    50    26    54 1   
    51    27    55 1   
    52    27    56 1   
    53    28    30 ar  
    54    28    31 ar  
    55    29    30 ar  
    56    29    32 1   
    57    30    33 ar  
    58    31    34 ar  
    59    31    57 1   
    60    32    58 1   
    61    32    59 1   
    62    32    60 1   
    63    33    35 ar  
    64    33    61 1   
    65    34    35 ar  
    66    34    62 1   
    67    35    63 1   
@<TRIPOS>SUBSTRUCTURE
     1 356         1 TEMP              0 ****  ****    0 ROOT
