@<TRIPOS>MOLECULE
358
   55    59     1     0     0
SMALL
bcc


@<TRIPOS>ATOM
      1 CL1          1.6400    -2.4080     2.1560 cl         1 358      -0.081900
      2 C1           1.0040    -1.3030     3.3160 ca         1 358       0.041900
      3 C2           0.5890    -1.7650     4.5540 ca         1 358      -0.120500
      4 C3           0.0850    -0.8610     5.4760 ca         1 358      -0.107000
      5 C4          -0.0110     0.4890     5.1710 ca         1 358      -0.120500
      6 C5           0.4040     0.9280     3.9250 ca         1 358       0.041900
      7 CL2          0.2690     2.5960     3.5140 cl         1 358      -0.081900
      8 C6           0.9150     0.0440     2.9800 ca         1 358       0.049600
      9 N1           1.3280     0.4880     1.7070 n          1 358      -0.308200
     10 C7           2.5870     1.0320     1.6020 c          1 358       0.723500
     11 O1           3.3010     1.1420     2.5770 o          1 358      -0.592500
     12 C8           2.9690     1.4680     0.2180 c6         1 358      -0.155400
     13 C9           2.4610     0.4860    -0.8270 c6         1 358      -0.027100
     14 C10          0.9790     0.3170    -0.6810 ca         1 358      -0.090300
     15 C11          0.4490     0.3440     0.6090 ca         1 358       0.085600
     16 C12         -0.9170     0.2210     0.8250 ca         1 358      -0.147000
     17 C13         -1.7940     0.0710    -0.2410 ca         1 358      -0.047300
     18 C14         -1.2680     0.0450    -1.5280 ca         1 358      -0.127000
     19 C15          0.1000     0.1590    -1.7530 cp         1 358      -0.008000
     20 C16          0.5920     0.1160    -3.1490 cp         1 358      -0.098000
     21 C17          0.2250     1.0890    -4.0770 ca         1 358      -0.066000
     22 C18          0.6560     1.0450    -5.3940 ca         1 358      -0.190000
     23 C19          1.4680    -0.0030    -5.7820 ca         1 358       0.167900
     24 F1           1.8990    -0.0620    -7.0480 f          1 358      -0.134900
     25 C20          1.8550    -1.0010    -4.9090 ca         1 358      -0.220000
     26 C21          1.4010    -0.9140    -3.6080 ca         1 358       0.174900
     27 F2           1.7550    -1.8820    -2.7530 f          1 358      -0.131900
     28 C22         -3.2740    -0.0570     0.0050 c6         1 358      -0.018400
     29 C23         -4.0710     1.0880    -0.6280 c6         1 358      -0.070400
     30 C24         -5.5590     0.9110    -0.3630 c6         1 358       0.159300
     31 N2          -6.0050    -0.3730    -0.8730 n7         1 358      -0.808200
     32 C25         -5.3300    -1.4780    -0.2170 c6         1 358       0.159300
     33 C26         -3.8320    -1.4010    -0.4750 c6         1 358      -0.070400
     34 H2           0.6620    -2.8170     4.7960 ha         1 358       0.153500
     35 H3          -0.2410    -1.2120     6.4450 ha         1 358       0.142000
     36 H4          -0.4070     1.1900     5.8930 ha         1 358       0.153500
     37 H81          2.5380     2.4600     0.0420 hc         1 358       0.078700
     38 H82          4.0520     1.5730     0.1750 hc         1 358       0.078700
     39 H91          2.7220     0.8470    -1.8210 hc         1 358       0.065700
     40 H92          2.9640    -0.4770    -0.6970 hc         1 358       0.065700
     41 H12         -1.3160     0.2480     1.8320 ha         1 358       0.143000
     42 H14         -1.9270    -0.0710    -2.3800 ha         1 358       0.141000
     43 H17         -0.4070     1.9070    -3.7570 ha         1 358       0.145000
     44 H18          0.3680     1.8110    -6.1010 ha         1 358       0.157000
     45 H20          2.4810    -1.8230    -5.2290 ha         1 358       0.170000
     46 H22         -3.4330    -0.0060     1.0890 hc         1 358       0.048700
     47 H231        -3.7350     2.0460    -0.2240 hc         1 358       0.050200
     48 H232        -3.8960     1.1150    -1.7080 hc         1 358       0.050200
     49 H241        -5.7380     1.0220     0.7190 h1         1 358       0.029450
     50 H242        -6.1220     1.7040    -0.8600 h1         1 358       0.029450
     51 HN2         -7.0040    -0.4600    -0.7390 hn         1 358       0.355800
     52 H251        -5.5000    -1.4910     0.8730 h1         1 358       0.029450
     53 H252        -5.7270    -2.4170    -0.6090 h1         1 358       0.029450
     54 H261        -3.6440    -1.5240    -1.5460 hc         1 358       0.050200
     55 H262        -3.3260    -2.2230     0.0360 hc         1 358       0.050200
@<TRIPOS>BOND
     1     1     2 1   
     2     2     3 ar  
     3     2     8 ar  
     4     3     4 ar  
     5     3    34 1   
     6     4     5 ar  
     7     4    35 1   
     8     5     6 ar  
     9     5    36 1   
    10     6     7 1   
    11     6     8 ar  
    12     8     9 1   
    13     9    10 1   
    14     9    15 1   
    15    10    11 2   
    16    10    12 1   
    17    12    13 1   
    18    12    37 1   
    19    12    38 1   
    20    13    14 1   
    21    13    39 1   
    22    13    40 1   
    23    14    15 ar  
    24    14    19 ar  
    25    15    16 ar  
    26    16    17 ar  
    27    16    41 1   
    28    17    18 ar  
    29    17    28 1   
    30    18    19 ar  
    31    18    42 1   
    32    19    20 1   
    33    20    21 ar  
    34    20    26 ar  
    35    21    22 ar  
    36    21    43 1   
    37    22    23 ar  
    38    22    44 1   
    39    23    24 1   
    40    23    25 ar  
    41    25    26 ar  
    42    25    45 1   
    43    26    27 1   
    44    28    29 1   
    45    28    33 1   
    46    28    46 1   
    47    29    30 1   
    48    29    47 1   
    49    29    48 1   
    50    30    31 1   
    51    30    49 1   
    52    30    50 1   
    53    31    32 1   
    54    31    51 1   
    55    32    33 1   
    56    32    52 1   
    57    32    53 1   
    58    33    54 1   
    59    33    55 1   
@<TRIPOS>SUBSTRUCTURE
     1 358         1 TEMP              0 ****  ****    0 ROOT
