@<TRIPOS>MOLECULE
358
   55    59     1     0     0
SMALL
No Charge or Current Charge


@<TRIPOS>ATOM
      1 Cl1          0.6690    -2.5080     2.1460 cl         1 358      -0.173500
      2 C1           0.5120    -1.2290     3.3540 ca         1 358       0.133500
      3 C2           0.0450    -1.5810     4.6320 ca         1 358      -0.102500
      4 C3          -0.0430    -0.6140     5.6460 ca         1 358      -0.089000
      5 C4           0.3450     0.7090     5.3820 ca         1 358      -0.102500
      6 C5           0.8160     1.0690     4.1080 ca         1 358       0.133500
      7 Cl2          1.2310     2.7600     3.8160 cl         1 358      -0.173500
      8 C6           0.8960     0.1060     3.0750 ca         1 358      -0.043000
      9 N1           1.3860     0.4810     1.7680 n          1 358      -0.056000
     10 C7           2.7350     0.8700     1.5960 c          1 358       0.581000
     11 O1           3.5700     0.7790     2.4900 o          1 358      -0.517000
     12 C8           3.1250     1.4070     0.2220 c6         1 358      -0.155400
     13 C9           2.5090     0.5500    -0.8960 c6         1 358      -0.027100
     14 C10          1.0020     0.3480    -0.6920 ca         1 358      -0.090300
     15 C11          0.4900     0.3230     0.6330 ca         1 358      -0.007000
     16 C12         -0.9010     0.1650     0.8320 ca         1 358      -0.129000
     17 C13         -1.7810     0.0150    -0.2520 ca         1 358      -0.047300
     18 C14         -1.2610     0.0220    -1.5560 ca         1 358      -0.109000
     19 C15          0.1200     0.1770    -1.7960 cp         1 358      -0.008000
     20 C16          0.6060     0.1650    -3.2060 cp         1 358      -0.098000
     21 C17          0.2260     1.1980    -4.0960 ca         1 358      -0.048000
     22 C18          0.6730     1.1980    -5.4280 ca         1 358      -0.172000
     23 C19          1.4990     0.1620    -5.8890 ca         1 358       0.203000
     24 F1           1.9260     0.1620    -7.1700 f          1 358      -0.170000
     25 C20          1.8780    -0.8780    -5.0300 ca         1 358      -0.202000
     26 C21          1.4320    -0.8780    -3.7000 ca         1 358       0.210000
     27 F2           1.7920    -1.9030    -2.8960 f          1 358      -0.167000
     28 C22         -3.2870    -0.1590    -0.0040 c6         1 358      -0.018400
     29 C23         -4.1270     0.9770    -0.6510 c6         1 358      -0.070400
     30 C24         -5.6400     0.7640    -0.3990 c6         1 358       0.159300
     31 N2          -6.0830    -0.5690    -0.8740 n7         1 358      -0.863400
     32 C25         -5.3270    -1.6820    -0.2500 c6         1 358       0.159300
     33 C26         -3.8050    -1.5370    -0.4970 c6         1 358      -0.070400
     34 H2          -0.2410    -2.6090     4.8380 ha         1 358       0.135500
     35 H3          -0.4060    -0.8900     6.6340 ha         1 358       0.124000
     36 H4           0.2740     1.4610     6.1640 ha         1 358       0.135500
     37 H81          2.6540     2.3950     0.1340 hc         1 358       0.078700
     38 H82          4.2140     1.5200     0.1380 hc         1 358       0.078700
     39 H91          2.7140     1.0310    -1.8620 hc         1 358       0.065700
     40 H92          3.0070    -0.4290    -0.9240 hc         1 358       0.065700
     41 H12         -1.3180     0.1720     1.8350 ha         1 358       0.125000
     42 H14         -1.9290    -0.1030    -2.4040 ha         1 358       0.123000
     43 H17         -0.4130     2.0050    -3.7420 ha         1 358       0.127000
     44 H18          0.3810     1.9980    -6.1040 ha         1 358       0.139000
     45 H20          2.5100    -1.6820    -5.3930 ha         1 358       0.152000
     46 H22         -3.4660    -0.1150     1.0800 hc         1 358       0.048700
     47 H231        -3.8180     1.9490    -0.2440 hc         1 358       0.050200
     48 H232        -3.9440     1.0180    -1.7330 hc         1 358       0.050200
     49 H241        -5.8480     0.8560     0.6770 h1         1 358       0.029450
     50 H242        -6.2130     1.5470    -0.9170 h1         1 358       0.029450
     51 HN2         -7.0820    -0.6830    -0.6570 hn         1 358       0.411000
     52 H251        -5.5230    -1.6930     0.8330 h1         1 358       0.029450
     53 H252        -5.6780    -2.6400    -0.6620 h1         1 358       0.029450
     54 H261        -3.6000    -1.6600    -1.5690 hc         1 358       0.050200
     55 H262        -3.2690    -2.3440     0.0190 hc         1 358       0.050200
@<TRIPOS>BOND
     1     1     2 1   
     2     2     3 ar  
     3     2     8 ar  
     4     3     4 ar  
     5     3    34 1   
     6     4     5 ar  
     7     4    35 1   
     8     5     6 ar  
     9     5    36 1   
    10     6     7 1   
    11     6     8 ar  
    12     8     9 1   
    13     9    10 1   
    14     9    15 1   
    15    10    11 2   
    16    10    12 1   
    17    12    13 1   
    18    12    37 1   
    19    12    38 1   
    20    13    14 1   
    21    13    39 1   
    22    13    40 1   
    23    14    15 ar  
    24    14    19 ar  
    25    15    16 ar  
    26    16    17 ar  
    27    16    41 1   
    28    17    18 ar  
    29    17    28 1   
    30    18    19 ar  
    31    18    42 1   
    32    19    20 1   
    33    20    21 ar  
    34    20    26 ar  
    35    21    22 ar  
    36    21    43 1   
    37    22    23 ar  
    38    22    44 1   
    39    23    24 1   
    40    23    25 ar  
    41    25    26 ar  
    42    25    45 1   
    43    26    27 1   
    44    28    29 1   
    45    28    33 1   
    46    28    46 1   
    47    29    30 1   
    48    29    47 1   
    49    29    48 1   
    50    30    31 1   
    51    30    49 1   
    52    30    50 1   
    53    31    32 1   
    54    31    51 1   
    55    32    33 1   
    56    32    52 1   
    57    32    53 1   
    58    33    54 1   
    59    33    55 1   
@<TRIPOS>SUBSTRUCTURE
     1 358         1 TEMP              0 ****  ****    0 ROOT
