@<TRIPOS>MOLECULE
359
   88    91     1     0     0
SMALL
No Charge or Current Charge


@<TRIPOS>ATOM
      1 C14          0.6660    -2.6710    -0.0710 c          1 359       0.607100
      2 O1           1.4450    -3.6170    -0.1410 o          1 359      -0.595100
      3 N5           1.1040    -1.3650    -0.2000 ns         1 359      -0.497900
      4 C15          2.5080    -0.9520    -0.4340 c3         1 359       0.029700
      5 C18          2.7950    -0.7540    -1.9480 c3         1 359      -0.076400
      6 C19          2.6030    -2.0250    -2.8180 c3         1 359      -0.159400
      7 C20          2.8240     0.3460     0.3660 c          1 359       0.585100
      8 O5           1.9560     1.0730     0.8350 o          1 359      -0.583100
      9 N6           4.1620     0.6310     0.5180 ns         1 359      -0.503900
     10 C21          4.6790     1.7990     1.2260 c3         1 359       0.148300
     11 C16          6.8590     2.4700     0.1100 ca         1 359      -0.103000
     12 C17          8.2630     2.5040     0.0620 ca         1 359      -0.083500
     13 C22          9.0400     1.8910     1.0730 ca         1 359      -0.141900
     14 C23          8.3630     1.2740     2.1540 ca         1 359      -0.083500
     15 C24          6.9580     1.2420     2.2000 ca         1 359      -0.103000
     16 C25          6.1980     1.8380     1.1780 ca         1 359      -0.097300
     17 N1          11.1770     2.7820     0.2970 n2         1 359      -0.829100
     18 C2           2.9810    -1.8800    -4.2970 c          1 359       0.602100
     19 O2           3.3710    -0.8430    -4.8050 o          1 359      -0.606100
     20 N3           2.8540    -2.9970    -5.0440 nt         1 359      -0.616000
     21 C1          -1.5270    -3.6440    -1.0040 c3         1 359      -0.009200
     22 N4          -1.2490    -3.5030     1.4450 n7         1 359      -0.881300
     23 C5          -0.8780    -2.8470     0.1520 c3         1 359       0.155500
     24 O4          -1.5300    -3.5300     3.9300 o          1 359      -0.533000
     25 O3          -0.1360    -1.7200     2.8170 o          1 359      -0.533000
     26 C9          -2.7970    -1.5950     2.5650 c3         1 359      -0.336400
     27 C8          -3.1310    -0.6700     3.7580 c3         1 359      -0.063100
     28 N2          11.2440     1.0390     1.7160 nv         1 359      -1.076200
     29 C13         -6.3250    -1.2830    -0.5500 ca         1 359      -0.163000
     30 C12         -6.3760    -2.6770    -0.3270 ca         1 359      -0.094000
     31 C3          -5.1860    -3.4050    -0.4490 ca         1 359      -0.090200
     32 C4          -4.0060    -2.8010    -0.7720 ca         1 359      -0.064800
     33 C27         -3.9190    -1.4230    -1.0110 ca         1 359      -0.132000
     34 C6          -5.0950    -0.6530    -0.8940 ca         1 359       0.145100
     35 N7          -4.9740    -4.7610    -0.2820 na         1 359      -0.223700
     36 C29         -3.6120    -5.0650    -0.4880 cc         1 359      -0.157100
     37 C28         -3.0100    -3.8470    -0.7860 cd         1 359      -0.181400
     38 C7          -6.1330     1.5780    -1.0320 c3         1 359       0.219900
     39 C11         -4.8380     5.6250    -1.9130 ca         1 359      -0.069000
     40 C10         -5.2800     4.7840    -2.9480 ca         1 359      -0.152000
     41 C31         -5.6970     3.4750    -2.6660 ca         1 359      -0.110000
     42 C32         -5.6760     2.9980    -1.3430 ca         1 359      -0.146300
     43 C30         -5.2310     3.8430    -0.3060 ca         1 359      -0.055000
     44 C33         -4.8080     5.1660    -0.5760 ca         1 359      -0.138600
     45 C34         -4.3330     6.0730     0.5470 c          1 359       0.714600
     46 O8          -3.9480     7.2000     0.2660 o          1 359      -0.718500
     47 O7          -4.3540     5.6480     1.6930 o          1 359      -0.718500
     48 HN5          0.4160    -0.6330    -0.0620 hn         1 359       0.342500
     49 H15          3.1790    -1.7290    -0.0440 h1         1 359       0.082700
     50 H18          2.1510     0.0470    -2.3340 hc         1 359       0.067700
     51 H18A         3.8290    -0.4060    -2.0690 hc         1 359       0.067700
     52 H19          3.1520    -2.8840    -2.4150 hc         1 359       0.063200
     53 H19A         1.5730    -2.3990    -2.7820 hc         1 359       0.063200
     54 HN6          4.8270    -0.0150     0.1090 hn         1 359       0.317500
     55 H21          4.2680     2.7080     0.7670 h1         1 359       0.068700
     56 H21A         4.3380     1.7650     2.2700 h1         1 359       0.068700
     57 H16          6.2840     2.9390    -0.6860 ha         1 359       0.123500
     58 H17          8.7490     3.0030    -0.7740 ha         1 359       0.127000
     59 H23          8.9190     0.8230     2.9730 ha         1 359       0.127000
     60 H24          6.4610     0.7570     3.0370 ha         1 359       0.123500
     61 HN1         12.1600     2.7660     0.5890 hn         1 359       0.366400
     62 HN3          2.5300    -3.8540    -4.6210 hn         1 359       0.311500
     63 HN3A         3.0870    -2.9630    -6.0250 hn         1 359       0.311500
     64 H1          -1.3550    -3.1140    -1.9490 hc         1 359       0.058700
     65 H1A         -1.0250    -4.6150    -1.0990 hc         1 359       0.058700
     66 HN4         -2.2300    -3.7670     1.3630 hn         1 359       0.493000
     67 H5          -1.3110    -1.8400     0.1060 h1         1 359       0.080700
     68 H9          -2.6250    -0.9960     1.6650 h1         1 359       0.095200
     69 H9A         -3.6200    -2.2950     2.3850 h1         1 359       0.095200
     70 H8          -4.0370    -0.0880     3.5470 hc         1 359       0.051033
     71 H8A         -3.3080    -1.2530     4.6710 hc         1 359       0.051033
     72 H8B         -2.3130     0.0350     3.9510 hc         1 359       0.051033
     73 HN2         10.7070     0.2360     2.0220 hn         1 359       0.460000
     74 HN2A        12.1690     0.8260     1.3610 hn         1 359       0.460000
     75 H13         -7.2430    -0.7110    -0.4550 ha         1 359       0.123000
     76 H12         -7.3110    -3.1690    -0.0660 ha         1 359       0.109000
     77 H27         -2.9780    -0.9530    -1.2800 ha         1 359       0.134000
     78 HN7         -5.6960    -5.4360    -0.0440 hn         1 359       0.348000
     79 H29         -3.2020    -6.0670    -0.3930 h4         1 359       0.207000
     80 H7          -6.9090     1.2790    -1.7490 h1         1 359       0.027200
     81 H7A         -6.5660     1.5450    -0.0240 h1         1 359       0.027200
     82 H31         -6.0360     2.8310    -3.4740 ha         1 359       0.084000
     83 H30         -5.2150     3.4640     0.7140 ha         1 359       0.128000
     84 S1          -1.3160    -2.5860     2.8320 s6         1 359       1.199100
     85 O6          -4.9970     0.7040    -1.1230 os         1 359      -0.330100
     86 H11         -4.5200     6.6370    -2.1550 ha         1 359       0.128000
     87 C26         10.5390     1.9620     1.0270 ce         1 359       0.661800
     88 H10         -5.2970     5.1490    -3.9730 ha         1 359       0.088000
@<TRIPOS>BOND
     1     1     2 2   
     2     1     3 1   
     3     1    23 1   
     4     3     4 1   
     5     3    48 1   
     6     4     5 1   
     7     4     7 1   
     8     4    49 1   
     9     5     6 1   
    10     5    50 1   
    11     5    51 1   
    12     6    18 1   
    13     6    52 1   
    14     6    53 1   
    15     7     8 2   
    16     7     9 1   
    17     9    10 1   
    18     9    54 1   
    19    10    16 1   
    20    10    55 1   
    21    10    56 1   
    22    11    12 ar  
    23    11    16 ar  
    24    11    57 1   
    25    12    13 ar  
    26    12    58 1   
    27    13    14 ar  
    28    13    87 1   
    29    14    15 ar  
    30    14    59 1   
    31    15    16 ar  
    32    15    60 1   
    33    17    61 1   
    34    17    87 2   
    35    18    19 2   
    36    18    20 1   
    37    20    62 1   
    38    20    63 1   
    39    21    23 1   
    40    21    37 1   
    41    21    64 1   
    42    21    65 1   
    43    22    23 1   
    44    22    66 1   
    45    22    84 1   
    46    23    67 1   
    47    24    84 2   
    48    25    84 2   
    49    26    27 1   
    50    26    68 1   
    51    26    69 1   
    52    26    84 1   
    53    27    70 1   
    54    27    71 1   
    55    27    72 1   
    56    28    73 1   
    57    28    74 1   
    58    28    87 1   
    59    29    30 ar  
    60    29    34 ar  
    61    29    75 1   
    62    30    31 ar  
    63    30    76 1   
    64    31    32 ar  
    65    31    35 1   
    66    32    33 ar  
    67    32    37 1   
    68    33    34 ar  
    69    33    77 1   
    70    34    85 1   
    71    35    36 1   
    72    35    78 1   
    73    36    37 2   
    74    36    79 1   
    75    38    42 1   
    76    38    80 1   
    77    38    81 1   
    78    38    85 1   
    79    39    40 ar  
    80    39    44 ar  
    81    39    86 1   
    82    40    41 ar  
    83    40    88 1   
    84    41    42 ar  
    85    41    82 1   
    86    42    43 ar  
    87    43    44 ar  
    88    43    83 1   
    89    44    45 1   
    90    45    46 1   
    91    45    47 1   
@<TRIPOS>SUBSTRUCTURE
     1 359         1 TEMP              0 ****  ****    0 ROOT
