@<TRIPOS>MOLECULE
359
   88    91     1     0     0
SMALL
abcg2


@<TRIPOS>ATOM
      1 C14          0.8330    -2.5570     0.0320 c          1 359       0.607100
      2 O1           1.6440    -3.3870     0.4000 o          1 359      -0.595100
      3 N5           1.1450    -1.4400    -0.6450 ns         1 359      -0.497900
      4 C15          2.4850    -1.0730    -1.0300 c3         1 359       0.029700
      5 C18          2.7610    -1.3260    -2.5190 c3         1 359      -0.076400
      6 C19          2.6010    -2.7900    -2.8890 c3         1 359      -0.159400
      7 C20          2.6850     0.4100    -0.7310 c          1 359       0.585100
      8 O5           1.7610     1.2080    -0.8060 o          1 359      -0.583100
      9 N6           3.9380     0.7650    -0.4310 ns         1 359      -0.503900
     10 C21          4.3190     2.1480    -0.1970 c3         1 359       0.148300
     11 C16          6.7860     2.3710    -0.6440 ca         1 359      -0.103000
     12 C17          8.1030     2.4050    -0.2160 ca         1 359      -0.083500
     13 C22          8.4140     2.2690     1.1350 ca         1 359      -0.141900
     14 C23          7.3730     2.1090     2.0480 ca         1 359      -0.083500
     15 C24          6.0560     2.0820     1.6170 ca         1 359      -0.103000
     16 C25          5.7460     2.2120     0.2680 ca         1 359      -0.097300
     17 N1          10.6790     2.9380     0.8310 n2         1 359      -0.829100
     18 C2           2.9650    -3.0870    -4.3310 c          1 359       0.602100
     19 O2           3.3070    -2.2190    -5.1210 o          1 359      -0.606100
     20 N3           2.8770    -4.3830    -4.6680 nt         1 359      -0.616000
     21 C1          -1.3090    -3.3580    -1.0110 c3         1 359      -0.009200
     22 N4          -0.9130    -3.5790     1.3970 n7         1 359      -0.881300
     23 C5          -0.6700    -2.7370     0.2470 c3         1 359       0.155500
     24 O4          -1.2820    -3.9950     3.8200 o          1 359      -0.533000
     25 O3          -0.5170    -1.7360     3.0160 o          1 359      -0.533000
     26 C9          -3.0480    -2.4020     2.6870 c3         1 359      -0.336400
     27 C8          -3.5670    -1.8280     3.9940 c3         1 359      -0.063100
     28 N2          10.1040     1.7310     2.7710 nv         1 359      -1.076200
     29 C13         -6.0100    -0.8630    -0.5180 ca         1 359      -0.163000
     30 C12         -6.1330    -2.2360    -0.3990 ca         1 359      -0.094000
     31 C3          -4.9920    -3.0150    -0.5340 ca         1 359      -0.090200
     32 C4          -3.7340    -2.4320    -0.7920 ca         1 359      -0.064800
     33 C27         -3.6230    -1.0460    -0.9120 ca         1 359      -0.132000
     34 C6          -4.7610    -0.2660    -0.7720 ca         1 359       0.145100
     35 N7          -4.8080    -4.3690    -0.4530 na         1 359      -0.223700
     36 C29         -3.4900    -4.6540    -0.6430 cc         1 359      -0.157100
     37 C28         -2.7820    -3.5010    -0.8560 cd         1 359      -0.181400
     38 C7          -5.6970     1.9350    -0.7240 c3         1 359       0.219900
     39 C11         -4.1750     5.9090    -1.1800 ca         1 359      -0.069000
     40 C10         -4.5950     5.1950    -2.2950 ca         1 359      -0.152000
     41 C31         -5.1010     3.9120    -2.1490 ca         1 359      -0.110000
     42 C32         -5.1950     3.3390    -0.8840 ca         1 359      -0.146300
     43 C30         -4.7740     4.0660     0.2230 ca         1 359      -0.055000
     44 C33         -4.2610     5.3540     0.0940 ca         1 359      -0.138600
     45 C34         -3.8020     6.1340     1.3210 c          1 359       0.714600
     46 O8          -3.3260     7.2670     1.1150 o          1 359      -0.718500
     47 O7          -3.9400     5.5710     2.4230 o          1 359      -0.718500
     48 HN5          0.4170    -0.7770    -0.8680 hn         1 359       0.342500
     49 H15          3.1800    -1.6650    -0.4320 h1         1 359       0.082700
     50 H18          2.0900    -0.7070    -3.1190 hc         1 359       0.067700
     51 H18A         3.7780    -0.9940    -2.7390 hc         1 359       0.067700
     52 H19          3.2140    -3.4200    -2.2380 hc         1 359       0.063200
     53 H19A         1.5690    -3.1160    -2.7320 hc         1 359       0.063200
     54 HN6          4.6530     0.0570    -0.3770 hn         1 359       0.317500
     55 H21          4.1930     2.7320    -1.1120 h1         1 359       0.068700
     56 H21A         3.6590     2.5820     0.5560 h1         1 359       0.068700
     57 H16          6.5660     2.4720    -1.7000 ha         1 359       0.123500
     58 H17          8.9010     2.5330    -0.9350 ha         1 359       0.127000
     59 H23          7.5750     2.0290     3.1080 ha         1 359       0.127000
     60 H24          5.2610     1.9690     2.3440 ha         1 359       0.123500
     61 HN1         11.6180     2.8770     1.2170 hn         1 359       0.366400
     62 HN3          2.6030    -5.0870    -4.0040 hn         1 359       0.311500
     63 HN3A         3.0980    -4.6860    -5.6020 hn         1 359       0.311500
     64 H1          -1.0680    -2.7200    -1.8650 hc         1 359       0.058700
     65 H1A         -0.8450    -4.3290    -1.2070 hc         1 359       0.058700
     66 HN4         -1.3170    -4.4910     1.2200 hn         1 359       0.493000
     67 H5          -1.1230    -1.7510     0.4000 h1         1 359       0.080700
     68 H9          -3.0900    -1.6650     1.8830 h1         1 359       0.095200
     69 H9A         -3.6160    -3.2780     2.3710 h1         1 359       0.095200
     70 H8          -4.6010    -1.5180     3.8580 hc         1 359       0.051033
     71 H8A         -3.5430    -2.5640     4.7950 hc         1 359       0.051033
     72 H8B         -2.9960    -0.9540     4.3020 hc         1 359       0.051033
     73 HN2          9.5250     0.9640     3.0710 hn         1 359       0.460000
     74 HN2A        11.0720     1.6310     3.0320 hn         1 359       0.460000
     75 H13         -6.9000    -0.2580    -0.4120 ha         1 359       0.123000
     76 H12         -7.1010    -2.6790    -0.2010 ha         1 359       0.109000
     77 H27         -2.6690    -0.5720    -1.1160 ha         1 359       0.134000
     78 HN7         -5.5290    -5.0520    -0.2930 hn         1 359       0.348000
     79 H29         -3.1390    -5.6740    -0.6160 h4         1 359       0.207000
     80 H7          -6.4710     1.7170    -1.4680 h1         1 359       0.027200
     81 H7A         -6.1380     1.7980     0.2690 h1         1 359       0.027200
     82 H31         -5.4290     3.3570    -3.0210 ha         1 359       0.084000
     83 H30         -4.8530     3.6260     1.2100 ha         1 359       0.128000
     84 S1          -1.3410    -2.9240     2.8360 s6         1 359       1.199100
     85 O6          -4.5830     1.0730    -0.8980 os         1 359      -0.330100
     86 H11         -3.7810     6.9100    -1.2990 ha         1 359       0.128000
     87 C26          9.8380     2.3200     1.5690 ce         1 359       0.661800
     88 H10         -4.5250     5.6390    -3.2800 ha         1 359       0.088000
@<TRIPOS>BOND
     1     1     2 2   
     2     1     3 1   
     3     1    23 1   
     4     3     4 1   
     5     3    48 1   
     6     4     5 1   
     7     4     7 1   
     8     4    49 1   
     9     5     6 1   
    10     5    50 1   
    11     5    51 1   
    12     6    18 1   
    13     6    52 1   
    14     6    53 1   
    15     7     8 2   
    16     7     9 1   
    17     9    10 1   
    18     9    54 1   
    19    10    16 1   
    20    10    55 1   
    21    10    56 1   
    22    11    12 ar  
    23    11    16 ar  
    24    11    57 1   
    25    12    13 ar  
    26    12    58 1   
    27    13    14 ar  
    28    13    87 1   
    29    14    15 ar  
    30    14    59 1   
    31    15    16 ar  
    32    15    60 1   
    33    17    61 1   
    34    17    87 2   
    35    18    19 2   
    36    18    20 1   
    37    20    62 1   
    38    20    63 1   
    39    21    23 1   
    40    21    37 1   
    41    21    64 1   
    42    21    65 1   
    43    22    23 1   
    44    22    66 1   
    45    22    84 1   
    46    23    67 1   
    47    24    84 2   
    48    25    84 2   
    49    26    27 1   
    50    26    68 1   
    51    26    69 1   
    52    26    84 1   
    53    27    70 1   
    54    27    71 1   
    55    27    72 1   
    56    28    73 1   
    57    28    74 1   
    58    28    87 1   
    59    29    30 ar  
    60    29    34 ar  
    61    29    75 1   
    62    30    31 ar  
    63    30    76 1   
    64    31    32 ar  
    65    31    35 1   
    66    32    33 ar  
    67    32    37 1   
    68    33    34 ar  
    69    33    77 1   
    70    34    85 1   
    71    35    36 1   
    72    35    78 1   
    73    36    37 2   
    74    36    79 1   
    75    38    42 1   
    76    38    80 1   
    77    38    81 1   
    78    38    85 1   
    79    39    40 ar  
    80    39    44 ar  
    81    39    86 1   
    82    40    41 ar  
    83    40    88 1   
    84    41    42 ar  
    85    41    82 1   
    86    42    43 ar  
    87    43    44 ar  
    88    43    83 1   
    89    44    45 1   
    90    45    46 1   
    91    45    47 1   
@<TRIPOS>SUBSTRUCTURE
     1 359         1 TEMP              0 ****  ****    0 ROOT
