@<TRIPOS>MOLECULE
35A
   65    67     1     0     0
SMALL
No Charge or Current Charge


@<TRIPOS>ATOM
      1 C           28.9930    42.2010    -0.1050 ca         1 35A      -0.041300
      2 C1          30.0610    43.0940     0.0960 ca         1 35A      -0.141000
      3 C2          33.5030    40.9190    -0.2290 ca         1 35A      -0.111000
      4 C3          32.9340    39.8130     0.4210 ca         1 35A      -0.109000
      5 O           29.7780    40.2760     1.0780 os         1 35A      -0.431100
      6 C4          29.2210    40.6970    -0.1760 c3         1 35A       0.208900
      7 C5          32.7660    39.8180     1.8200 ca         1 35A      -0.085300
      8 C6          32.1650    38.5970     2.5160 c3         1 35A      -0.067100
      9 C7          30.6180    38.6430     2.7070 c3         1 35A       0.131200
     10 C8          33.9170    42.0350     0.5160 ca         1 35A      -0.112000
     11 C9          33.7570    42.0550     1.9150 ca         1 35A      -0.068300
     12 C10         33.1830    40.9410     2.5610 ca         1 35A      -0.107000
     13 C11         31.1650    45.7020     1.9980 c3         1 35A      -0.072400
     14 C12         31.9330    44.5580     2.7210 c3         1 35A      -0.065700
     15 C13         33.4490    44.5620     2.3600 c3         1 35A      -0.071400
     16 C14         34.2180    43.2670     2.7200 c3         1 35A      -0.031100
     17 C15         29.7980    44.4720     0.2100 ca         1 35A       0.383300
     18 C16         30.9120    45.4750     0.4810 c3         1 35A      -0.126700
     19 N           28.5530    44.9870     0.1180 nb         1 35A      -0.728000
     20 C17         27.7020    42.7460    -0.1960 ca         1 35A      -0.129000
     21 C18         27.5350    44.1350    -0.0700 ca         1 35A       0.580900
     22 N19         26.3010    44.7440    -0.1680 nh         1 35A      -0.753200
     23 S           25.3560    44.7700     1.2590 s6         1 35A       1.253100
     24 C20         26.3280    45.6760     2.4490 c3         1 35A      -0.376100
     25 O21         24.1500    45.5490     0.9590 o          1 35A      -0.539000
     26 O22         25.2380    43.3810     1.7110 o          1 35A      -0.539000
     27 C23         25.5660    44.6840    -1.4410 c3         1 35A       0.201100
     28 C24         31.7120    44.6310     4.2520 c3         1 35A      -0.087100
     29 C25         29.9290    38.9280     1.3070 c          1 35A       0.604100
     30 O26         29.5410    38.0600     0.5320 o          1 35A      -0.494000
     31 C27         30.1240    37.2820     3.2610 c3         1 35A      -0.080100
     32 N28         30.2970    39.6700     3.7510 n8         1 35A      -0.988200
     33 H1          31.0790    42.7240     0.1840 ha         1 35A       0.138000
     34 H3          32.6250    38.9510    -0.1660 ha         1 35A       0.121000
     35 H41         28.2660    40.1910    -0.3700 h1         1 35A       0.061200
     36 H42         29.9060    40.4650    -1.0040 h1         1 35A       0.061200
     37 H61         32.4160    37.7000     1.9350 hc         1 35A       0.062700
     38 H62         32.6490    38.4480     3.4900 hc         1 35A       0.062700
     39 H8          34.3670    42.8820     0.0040 ha         1 35A       0.112000
     40 H10         33.0680    40.9480     3.6420 ha         1 35A       0.107000
     41 H111        31.7210    46.6380     2.1300 hc         1 35A       0.053700
     42 H112        30.1930    45.8590     2.4830 hc         1 35A       0.053700
     43 H12         31.5020    43.6050     2.3910 hc         1 35A       0.055700
     44 H131        33.5830    44.7500     1.2900 hc         1 35A       0.038700
     45 H132        33.9310    45.4060     2.8690 hc         1 35A       0.038700
     46 H141        34.1440    43.0750     3.7960 hc         1 35A       0.049200
     47 H142        35.2840    43.4360     2.5260 hc         1 35A       0.049200
     48 H161        30.6490    46.4400     0.0300 hc         1 35A       0.055200
     49 H162        31.8320    45.1600    -0.0230 hc         1 35A       0.055200
     50 H17         26.8350    42.1110    -0.3480 ha         1 35A       0.139000
     51 H201        25.7290    45.7660     3.3610 h1         1 35A       0.105033
     52 H202        27.2460    45.1090     2.6310 h1         1 35A       0.105033
     53 H203        26.5450    46.6550     2.0130 h1         1 35A       0.105033
     54 H231        24.8640    43.8390    -1.4520 h1         1 35A       0.055367
     55 H232        25.0040    45.6130    -1.6060 h1         1 35A       0.055367
     56 H233        26.2610    44.5660    -2.2820 h1         1 35A       0.055367
     57 H241        32.1720    43.7770     4.7620 hc         1 35A       0.036033
     58 H242        32.1410    45.5520     4.6650 hc         1 35A       0.036033
     59 H243        30.6420    44.6160     4.4900 hc         1 35A       0.036033
     60 H271        30.3780    36.4620     2.5790 hc         1 35A       0.052033
     61 H272        30.5810    37.0610     4.2340 hc         1 35A       0.052033
     62 H273        29.0350    37.2870     3.3910 hc         1 35A       0.052033
     63 H281        31.0740    39.7250     4.4170 hn         1 35A       0.411000
     64 H282        30.3080    40.5890     3.2920 hn         1 35A       0.411000
     65 H2          33.6300    40.9090    -1.3090 ha         1 35A       0.114000
@<TRIPOS>BOND
     1     1     2 ar  
     2     1     6 1   
     3     1    20 ar  
     4     2    17 ar  
     5     2    33 1   
     6     3     4 ar  
     7     3    10 ar  
     8     3    65 1   
     9     4     7 ar  
    10     4    34 1   
    11     5     6 1   
    12     5    29 1   
    13     6    35 1   
    14     6    36 1   
    15     7     8 1   
    16     7    12 ar  
    17     8     9 1   
    18     8    37 1   
    19     8    38 1   
    20     9    29 1   
    21     9    31 1   
    22     9    32 1   
    23    10    11 ar  
    24    10    39 1   
    25    11    12 ar  
    26    11    16 1   
    27    12    40 1   
    28    13    14 1   
    29    13    18 1   
    30    13    41 1   
    31    13    42 1   
    32    14    15 1   
    33    14    28 1   
    34    14    43 1   
    35    15    16 1   
    36    15    44 1   
    37    15    45 1   
    38    16    46 1   
    39    16    47 1   
    40    17    18 1   
    41    17    19 ar  
    42    18    48 1   
    43    18    49 1   
    44    19    21 ar  
    45    20    21 ar  
    46    20    50 1   
    47    21    22 1   
    48    22    23 1   
    49    22    27 1   
    50    23    24 1   
    51    23    25 2   
    52    23    26 2   
    53    24    51 1   
    54    24    52 1   
    55    24    53 1   
    56    27    54 1   
    57    27    55 1   
    58    27    56 1   
    59    28    57 1   
    60    28    58 1   
    61    28    59 1   
    62    29    30 2   
    63    31    60 1   
    64    31    61 1   
    65    31    62 1   
    66    32    63 1   
    67    32    64 1   
@<TRIPOS>SUBSTRUCTURE
     1 35A         1 TEMP              0 ****  ****    0 ROOT
