@<TRIPOS>MOLECULE
35A
   65    67     1     0     0
SMALL
abcg2


@<TRIPOS>ATOM
      1 C           29.0130    42.0440    -0.0440 ca         1 35A      -0.041300
      2 C1          30.0510    42.9610     0.1100 ca         1 35A      -0.141000
      3 C2          33.5330    41.1390    -0.2290 ca         1 35A      -0.111000
      4 C3          33.0620    39.9380     0.2930 ca         1 35A      -0.109000
      5 O           29.7750    40.1080     1.0510 os         1 35A      -0.431100
      6 C4          29.3100    40.5870    -0.2360 c3         1 35A       0.208900
      7 C5          32.8970    39.7840     1.6690 ca         1 35A      -0.085300
      8 C6          32.3490    38.5020     2.2330 c3         1 35A      -0.067100
      9 C7          30.8010    38.5080     2.4830 c3         1 35A       0.131200
     10 C8          33.8440    42.1960     0.6160 ca         1 35A      -0.112000
     11 C9          33.6910    42.0690     1.9990 ca         1 35A      -0.068300
     12 C10         33.2190    40.8580     2.5030 ca         1 35A      -0.107000
     13 C11         30.9960    45.5390     2.1780 c3         1 35A      -0.072400
     14 C12         31.7360    44.4010     2.8960 c3         1 35A      -0.065700
     15 C13         33.2460    44.4950     2.6320 c3         1 35A      -0.071400
     16 C14         34.0360    43.2120     2.9220 c3         1 35A      -0.031100
     17 C15         29.7510    44.2890     0.3890 ca         1 35A       0.383300
     18 C16         30.8150    45.3130     0.6640 c3         1 35A      -0.126700
     19 N           28.4800    44.7160     0.4740 nb         1 35A      -0.728000
     20 C17         27.7060    42.4910     0.0680 ca         1 35A      -0.129000
     21 C18         27.4950    43.8440     0.3250 ca         1 35A       0.580900
     22 N19         26.1530    44.3170     0.4380 nh         1 35A      -0.753200
     23 S           25.7810    45.4330     1.6010 s6         1 35A       1.253100
     24 C20         26.3030    47.0220     1.0120 c3         1 35A      -0.376100
     25 O21         24.3390    45.4530     1.6960 o          1 35A      -0.539000
     26 O22         26.5450    45.0910     2.7770 o          1 35A      -0.539000
     27 C23         25.3080    44.2430    -0.7660 c3         1 35A       0.201100
     28 C24         31.4270    44.4120     4.3930 c3         1 35A      -0.087100
     29 C25         30.1550    38.8320     1.1350 c          1 35A       0.604100
     30 O26         30.0580    38.0440     0.2210 o          1 35A      -0.494000
     31 C27         30.3710    37.1130     2.9360 c3         1 35A      -0.080100
     32 N28         30.3770    39.4790     3.4930 n8         1 35A      -0.988200
     33 H1          31.0820    42.6400     0.0400 ha         1 35A       0.138000
     34 H3          32.8230    39.1160    -0.3710 ha         1 35A       0.121000
     35 H41         28.4240    40.0270    -0.5290 h1         1 35A       0.061200
     36 H42         30.0990    40.4280    -0.9700 h1         1 35A       0.061200
     37 H61         32.5790    37.6760     1.5580 hc         1 35A       0.062700
     38 H62         32.8070    38.2820     3.1990 hc         1 35A       0.062700
     39 H8          34.2130    43.1250     0.1990 ha         1 35A       0.112000
     40 H10         33.1100    40.7450     3.5760 ha         1 35A       0.107000
     41 H111        31.5420    46.4740     2.3360 hc         1 35A       0.053700
     42 H112        30.0060    45.6780     2.6220 hc         1 35A       0.053700
     43 H12         31.3750    43.4510     2.4880 hc         1 35A       0.055700
     44 H131        33.4170    44.7780     1.5910 hc         1 35A       0.038700
     45 H132        33.6540    45.3100     3.2390 hc         1 35A       0.038700
     46 H141        33.8780    42.8980     3.9550 hc         1 35A       0.049200
     47 H142        35.1030    43.4380     2.8260 hc         1 35A       0.049200
     48 H161        30.5200    46.2520     0.1940 hc         1 35A       0.055200
     49 H162        31.7580    44.9980     0.2130 hc         1 35A       0.055200
     50 H17         26.8720    41.8080    -0.0170 ha         1 35A       0.139000
     51 H201        26.0140    47.7520     1.7660 h1         1 35A       0.105033
     52 H202        27.3800    46.9900     0.8740 h1         1 35A       0.105033
     53 H203        25.7910    47.2210     0.0710 h1         1 35A       0.105033
     54 H231        24.2830    44.4760    -0.4980 h1         1 35A       0.055367
     55 H232        25.6580    44.9340    -1.5370 h1         1 35A       0.055367
     56 H233        25.3430    43.2270    -1.1540 h1         1 35A       0.055367
     57 H241        31.9500    43.6110     4.9190 hc         1 35A       0.036033
     58 H242        31.7320    45.3620     4.8410 hc         1 35A       0.036033
     59 H243        30.3570    44.2850     4.5690 hc         1 35A       0.036033
     60 H271        30.6470    36.3620     2.1980 hc         1 35A       0.052033
     61 H272        30.8660    36.8750     3.8780 hc         1 35A       0.052033
     62 H273        29.2920    37.0800     3.0920 hc         1 35A       0.052033
     63 H281        30.8670    39.2820     4.3600 hn         1 35A       0.411000
     64 H282        30.6370    40.4190     3.2180 hn         1 35A       0.411000
     65 H2          33.6610    41.2480    -1.2990 ha         1 35A       0.114000
@<TRIPOS>BOND
     1     1     2 ar  
     2     1     6 1   
     3     1    20 ar  
     4     2    17 ar  
     5     2    33 1   
     6     3     4 ar  
     7     3    10 ar  
     8     3    65 1   
     9     4     7 ar  
    10     4    34 1   
    11     5     6 1   
    12     5    29 1   
    13     6    35 1   
    14     6    36 1   
    15     7     8 1   
    16     7    12 ar  
    17     8     9 1   
    18     8    37 1   
    19     8    38 1   
    20     9    29 1   
    21     9    31 1   
    22     9    32 1   
    23    10    11 ar  
    24    10    39 1   
    25    11    12 ar  
    26    11    16 1   
    27    12    40 1   
    28    13    14 1   
    29    13    18 1   
    30    13    41 1   
    31    13    42 1   
    32    14    15 1   
    33    14    28 1   
    34    14    43 1   
    35    15    16 1   
    36    15    44 1   
    37    15    45 1   
    38    16    46 1   
    39    16    47 1   
    40    17    18 1   
    41    17    19 ar  
    42    18    48 1   
    43    18    49 1   
    44    19    21 ar  
    45    20    21 ar  
    46    20    50 1   
    47    21    22 1   
    48    22    23 1   
    49    22    27 1   
    50    23    24 1   
    51    23    25 2   
    52    23    26 2   
    53    24    51 1   
    54    24    52 1   
    55    24    53 1   
    56    27    54 1   
    57    27    55 1   
    58    27    56 1   
    59    28    57 1   
    60    28    58 1   
    61    28    59 1   
    62    29    30 2   
    63    31    60 1   
    64    31    61 1   
    65    31    62 1   
    66    32    63 1   
    67    32    64 1   
@<TRIPOS>SUBSTRUCTURE
     1 35A         1 TEMP              0 ****  ****    0 ROOT
