@<TRIPOS>MOLECULE
35B
   52    54     1     0     0
SMALL
abcg2


@<TRIPOS>ATOM
      1 C1           5.8130     3.9400    -0.0240 c3         1 35B       0.112300
      2 C2           4.4190     2.1080     0.7630 c          1 35B       0.656100
      3 C3           2.9220     0.3770     1.3780 ca         1 35B      -0.049000
      4 C4           2.9450    -0.2010     2.6400 ca         1 35B      -0.133000
      5 C5           1.7640    -0.6450     3.2190 ca         1 35B      -0.121000
      6 C6           0.5600    -0.5150     2.5450 ca         1 35B      -0.092000
      7 N1           5.4840     2.5360     0.0480 ns         1 35B      -0.532900
      8 C7           0.5280     0.0580     1.2730 ca         1 35B       0.059000
      9 O1           3.7370     2.8880     1.4210 o          1 35B      -0.624100
     10 C8           1.7170     0.5060     0.7000 ca         1 35B      -0.099000
     11 C9          -0.7340     0.2050     0.5420 cc         1 35B      -0.267000
     12 C10         -1.6810    -0.7280     0.2330 cd         1 35B      -0.033900
     13 C11         -2.7780    -0.2210    -0.5300 cd         1 35B       0.107100
     14 C12         -2.6530     1.1200    -0.7740 cc         1 35B      -0.243600
     15 C13         -3.5200     2.1010    -1.5160 c          1 35B       0.733600
     16 C14         -4.9330    -1.0170    -0.1460 c3         1 35B       0.026600
     17 C15         -5.9910    -1.9800    -0.6970 c          1 35B       0.733000
     18 C16          4.8820    -0.3090     0.0810 c6         1 35B       0.123700
     19 C17          6.3300    -0.4650     0.5520 c6         1 35B      -0.090400
     20 C18          6.9430    -1.7220    -0.0630 c6         1 35B      -0.075400
     21 C19          6.8480    -1.7040    -1.5860 c6         1 35B      -0.076400
     22 C20          5.4020    -1.5390    -2.0420 c6         1 35B      -0.075400
     23 C21          4.7690    -0.2850    -1.4460 c6         1 35B      -0.090400
     24 N2           4.1350     0.7650     0.7480 n          1 35B      -0.261400
     25 S1          -1.1990     1.7360    -0.0950 ss         1 35B       0.240000
     26 O2          -3.0540     3.2570    -1.5630 o          1 35B      -0.702000
     27 O3          -4.5850     1.6820    -1.9950 o          1 35B      -0.702000
     28 O4          -3.7640    -1.0230    -0.9600 os         1 35B      -0.290100
     29 O5          -7.0210    -2.0460     0.0040 o          1 35B      -0.741500
     30 O6          -5.7490    -2.5840    -1.7520 o          1 35B      -0.741500
     31 BR1         -1.5580    -2.5490     0.6490 br         1 35B      -0.120100
     32 H1           5.0160     4.5350    -0.4750 h1         1 35B       0.030367
     33 H1A          6.0310     4.3520     0.9600 h1         1 35B       0.030367
     34 H4           3.8860    -0.3020     3.1670 ha         1 35B       0.096000
     35 H5           1.7810    -1.0860     4.2070 ha         1 35B       0.096000
     36 H6          -0.3580    -0.8410     3.0150 ha         1 35B       0.129000
     37 H8           1.7120     0.9410    -0.2920 ha         1 35B       0.128000
     38 H14         -5.3490    -0.0060    -0.1020 h1         1 35B       0.017200
     39 H14A        -4.6800    -1.3120     0.8800 h1         1 35B       0.017200
     40 H16          4.3730    -1.2220     0.4040 h1         1 35B       0.069700
     41 H17          6.9410     0.3980     0.2760 hc         1 35B       0.047450
     42 H17A         6.3500    -0.5260     1.6430 hc         1 35B       0.047450
     43 H18          7.9840    -1.8150     0.2530 hc         1 35B       0.041200
     44 H18A         6.4210    -2.6040     0.3200 hc         1 35B       0.041200
     45 H19          7.4520    -0.8780    -1.9790 hc         1 35B       0.031200
     46 H19A         7.2710    -2.6220    -2.0000 hc         1 35B       0.031200
     47 H20          5.3440    -1.5010    -3.1310 hc         1 35B       0.041200
     48 H20A         4.8240    -2.4150    -1.7280 hc         1 35B       0.041200
     49 H21          3.7160    -0.2160    -1.7300 hc         1 35B       0.047450
     50 H21A         5.2620     0.5960    -1.8710 hc         1 35B       0.047450
     51 H1B          6.7040     4.0450    -0.6380 h1         1 35B       0.030367
     52 HN           5.9330     1.9310    -0.6130 hn         1 35B       0.308500
@<TRIPOS>BOND
     1     1     7 1   
     2     1    32 1   
     3     1    33 1   
     4     1    51 1   
     5     2     7 1   
     6     2     9 2   
     7     2    24 1   
     8     3     4 ar  
     9     3    10 ar  
    10     3    24 1   
    11     4     5 ar  
    12     4    34 1   
    13     5     6 ar  
    14     5    35 1   
    15     6     8 ar  
    16     6    36 1   
    17     7    52 1   
    18     8    10 ar  
    19     8    11 1   
    20    10    37 1   
    21    11    12 2   
    22    11    25 1   
    23    12    13 1   
    24    12    31 1   
    25    13    14 2   
    26    13    28 1   
    27    14    15 1   
    28    14    25 1   
    29    15    26 1   
    30    15    27 1   
    31    16    17 1   
    32    16    28 1   
    33    16    38 1   
    34    16    39 1   
    35    17    29 1   
    36    17    30 1   
    37    18    19 1   
    38    18    23 1   
    39    18    24 1   
    40    18    40 1   
    41    19    20 1   
    42    19    41 1   
    43    19    42 1   
    44    20    21 1   
    45    20    43 1   
    46    20    44 1   
    47    21    22 1   
    48    21    45 1   
    49    21    46 1   
    50    22    23 1   
    51    22    47 1   
    52    22    48 1   
    53    23    49 1   
    54    23    50 1   
@<TRIPOS>SUBSTRUCTURE
     1 35B         1 TEMP              0 ****  ****    0 ROOT
