@<TRIPOS>MOLECULE
35B
   52    54     1     0     0
SMALL
No Charge or Current Charge


@<TRIPOS>ATOM
      1 C1           5.5730     3.7700    -0.8220 c3         1 35B       0.112300
      2 C2           4.0880     1.9420     0.0560 c          1 35B       0.656100
      3 C3           2.7290    -0.0270     0.8260 ca         1 35B      -0.049000
      4 C4           2.8000    -0.8370     1.9810 ca         1 35B      -0.133000
      5 C5           1.6310    -1.2680     2.6300 ca         1 35B      -0.121000
      6 C6           0.3750    -0.8540     2.1630 ca         1 35B      -0.092000
      7 N1           5.2520     2.3720    -0.5370 ns         1 35B      -0.532900
      8 C7           0.2830     0.0070     1.0550 ca         1 35B       0.059000
      9 O1           3.2360     2.7560     0.3870 o          1 35B      -0.624100
     10 C8           1.4600     0.4420     0.4210 ca         1 35B      -0.099000
     11 C9          -1.0140     0.4910     0.5920 cc         1 35B      -0.267000
     12 C10         -2.0090    -0.3580     0.1630 cd         1 35B      -0.033900
     13 C11         -3.1470     0.3840    -0.2970 cd         1 35B       0.107100
     14 C12         -3.0020     1.7560    -0.2680 cc         1 35B      -0.243600
     15 C13         -3.9770     2.7890    -0.6850 c          1 35B       0.733600
     16 C14         -5.0780    -1.0510     0.0960 c3         1 35B       0.026600
     17 C15         -6.2920    -1.7180    -0.6210 c          1 35B       0.733000
     18 C16          5.0500    -0.4360     0.0030 c6         1 35B       0.123700
     19 C17          6.3150    -0.2410     0.8900 c6         1 35B      -0.090400
     20 C18          7.3250    -1.3940     0.6660 c6         1 35B      -0.075400
     21 C19          7.6770    -1.5520    -0.8350 c6         1 35B      -0.076400
     22 C20          6.4070    -1.7840    -1.6920 c6         1 35B      -0.075400
     23 C21          5.3810    -0.6390    -1.5040 c6         1 35B      -0.090400
     24 N2           3.9400     0.5380     0.2670 n          1 35B      -0.261400
     25 S1          -1.4250     2.1900     0.3790 ss         1 35B       0.240000
     26 O2          -3.6450     3.9600    -0.5740 o          1 35B      -0.702000
     27 O3          -5.0720     2.4680    -1.1180 o          1 35B      -0.702000
     28 O4          -4.2850    -0.2080    -0.7790 os         1 35B      -0.290100
     29 O5          -7.0550    -2.3900     0.0640 o          1 35B      -0.741500
     30 O6          -6.4490    -1.5680    -1.8270 o          1 35B      -0.741500
     31 Br1         -1.8300    -2.2470     0.0650 br         1 35B      -0.120100
     32 H1           4.8190     4.1910    -1.4990 h1         1 35B       0.030367
     33 H1A          5.5880     4.3440     0.1140 h1         1 35B       0.030367
     34 H4           3.7630    -1.1360     2.3880 ha         1 35B       0.096000
     35 H5           1.7010    -1.9070     3.5070 ha         1 35B       0.096000
     36 H6          -0.5270    -1.1780     2.6770 ha         1 35B       0.129000
     37 H8           1.3800     1.1230    -0.4220 ha         1 35B       0.128000
     38 H14         -5.4690    -0.4520     0.9290 h1         1 35B       0.017200
     39 H14A        -4.4770    -1.8570     0.5280 h1         1 35B       0.017200
     40 H16          4.6590    -1.4190     0.3040 h1         1 35B       0.069700
     41 H17          6.8120     0.7120     0.6740 hc         1 35B       0.047450
     42 H17A         6.0260    -0.2060     1.9490 hc         1 35B       0.047450
     43 H18          8.2390    -1.2060     1.2460 hc         1 35B       0.041200
     44 H18A         6.9040    -2.3350     1.0470 hc         1 35B       0.041200
     45 H19          8.2040    -0.6540    -1.1880 hc         1 35B       0.031200
     46 H19A         8.3720    -2.3920    -0.9660 hc         1 35B       0.031200
     47 H20          6.6820    -1.8660    -2.7530 hc         1 35B       0.041200
     48 H20A         5.9460    -2.7430    -1.4160 hc         1 35B       0.041200
     49 H21          4.4600    -0.8760    -2.0550 hc         1 35B       0.047450
     50 H21A         5.7840     0.2760    -1.9550 hc         1 35B       0.047450
     51 H1B          6.5600     3.8280    -1.2980 h1         1 35B       0.030367
     52 HN           5.9270     1.6610    -0.7840 hn         1 35B       0.308500
@<TRIPOS>BOND
     1     1     7 1   
     2     1    32 1   
     3     1    33 1   
     4     1    51 1   
     5     2     7 1   
     6     2     9 2   
     7     2    24 1   
     8     3     4 ar  
     9     3    10 ar  
    10     3    24 1   
    11     4     5 ar  
    12     4    34 1   
    13     5     6 ar  
    14     5    35 1   
    15     6     8 ar  
    16     6    36 1   
    17     7    52 1   
    18     8    10 ar  
    19     8    11 1   
    20    10    37 1   
    21    11    12 2   
    22    11    25 1   
    23    12    13 1   
    24    12    31 1   
    25    13    14 2   
    26    13    28 1   
    27    14    15 1   
    28    14    25 1   
    29    15    26 1   
    30    15    27 1   
    31    16    17 1   
    32    16    28 1   
    33    16    38 1   
    34    16    39 1   
    35    17    29 1   
    36    17    30 1   
    37    18    19 1   
    38    18    23 1   
    39    18    24 1   
    40    18    40 1   
    41    19    20 1   
    42    19    41 1   
    43    19    42 1   
    44    20    21 1   
    45    20    43 1   
    46    20    44 1   
    47    21    22 1   
    48    21    45 1   
    49    21    46 1   
    50    22    23 1   
    51    22    47 1   
    52    22    48 1   
    53    23    49 1   
    54    23    50 1   
@<TRIPOS>SUBSTRUCTURE
     1 35B         1 TEMP              0 ****  ****    0 ROOT
