@<TRIPOS>MOLECULE
35C
   14    14     1     0     0
SMALL
No Charge or Current Charge


@<TRIPOS>ATOM
      1 C1          -0.2820    -1.5790    -0.0040 ca         1 35C       0.062100
      2 C2          -1.2570    -0.5620     0.0900 ca         1 35C       0.129100
      3 C3          -0.8590     0.7930     0.1110 ca         1 35C       0.105000
      4 C4           0.5040     1.1240     0.0390 ca         1 35C      -0.091000
      5 C5           1.4700     0.1080    -0.0550 ca         1 35C       0.123000
      6 C6           1.0810    -1.2420    -0.0770 ca         1 35C      -0.157000
      7 O7          -0.6690    -2.8940    -0.0250 oh         1 35C      -0.553100
      8 O8          -2.5780    -0.9190     0.1580 oh         1 35C      -0.511100
      9 Cl9         -2.0520     2.0890     0.2280 cl         1 35C      -0.167000
     10 Cl10         3.1750     0.5270    -0.1450 cl         1 35C      -0.191000
     11 H4           0.8130     2.1650     0.0550 ha         1 35C       0.149000
     12 H6           1.8410    -2.0150    -0.1490 ha         1 35C       0.133000
     13 HO7          0.1310    -3.4640    -0.0930 ho         1 35C       0.482000
     14 HO8         -2.5960    -1.9020     0.1260 ho         1 35C       0.487000
@<TRIPOS>BOND
     1     1     2 ar  
     2     1     6 ar  
     3     1     7 1   
     4     2     3 ar  
     5     2     8 1   
     6     3     4 ar  
     7     3     9 1   
     8     4     5 ar  
     9     4    11 1   
    10     5     6 ar  
    11     5    10 1   
    12     6    12 1   
    13     7    13 1   
    14     8    14 1   
@<TRIPOS>SUBSTRUCTURE
     1 35C         1 TEMP              0 ****  ****    0 ROOT
