@<TRIPOS>MOLECULE
35C
   14    14     1     0     0
SMALL
bcc


@<TRIPOS>ATOM
      1 C1          -0.2320    -1.5720    -0.0040 ca         1 35C       0.062100
      2 C2          -1.2250    -0.5840     0.0890 ca         1 35C       0.129100
      3 C3          -0.8260     0.7430     0.1080 ca         1 35C       0.013400
      4 C4           0.5110     1.1160     0.0380 ca         1 35C      -0.109000
      5 C5           1.4600     0.1180    -0.0540 ca         1 35C       0.031400
      6 C6           1.1060    -1.2240    -0.0760 ca         1 35C      -0.175000
      7 O7          -0.6800    -2.8410    -0.0160 oh         1 35C      -0.514100
      8 O8          -2.5290    -0.8870     0.1580 oh         1 35C      -0.472100
      9 CL9         -2.0430     1.9620     0.2210 cl         1 35C      -0.075400
     10 CL10         3.1360     0.5450    -0.1430 cl         1 35C      -0.099400
     11 H4           0.7890     2.1600     0.0540 ha         1 35C       0.167000
     12 H6           1.8650    -1.9930    -0.1460 ha         1 35C       0.151000
     13 HO7          0.0440    -3.4710    -0.1000 ho         1 35C       0.443000
     14 HO8         -2.6560    -1.8430     0.1290 ho         1 35C       0.448000
@<TRIPOS>BOND
     1     1     2 ar  
     2     1     6 ar  
     3     1     7 1   
     4     2     3 ar  
     5     2     8 1   
     6     3     4 ar  
     7     3     9 1   
     8     4     5 ar  
     9     4    11 1   
    10     5     6 ar  
    11     5    10 1   
    12     6    12 1   
    13     7    13 1   
    14     8    14 1   
@<TRIPOS>SUBSTRUCTURE
     1 35C         1 TEMP              0 ****  ****    0 ROOT
