@<TRIPOS>MOLECULE
35D
   61    66     1     0     0
SMALL
bcc


@<TRIPOS>ATOM
      1 C01          6.2980    -3.7710    -1.7850 c3         1 35D      -0.177100
      2 C02          5.9360    -3.4190    -0.3600 c          1 35D       0.675100
      3 O03          6.7850    -3.4450     0.5230 o          1 35D      -0.607100
      4 N04          4.6470    -3.0970    -0.1090 n          1 35D      -0.478800
      5 C05          4.2260    -2.6690     1.2130 c6         1 35D       0.097000
      6 C06          3.8220    -1.2000     1.2020 c6         1 35D      -0.093900
      7 C07          2.7440    -0.9390     0.1410 c6         1 35D      -0.103000
      8 C08          3.2120    -1.4570    -1.2210 c6         1 35D      -0.093900
      9 C09          3.6210    -2.9210    -1.1200 c6         1 35D       0.097000
     10 C10          2.4040     0.5250     0.0980 ca         1 35D       0.333300
     11 N11          3.2640     1.3490    -0.4100 nb         1 35D      -0.621000
     12 C12          2.9850     2.6780    -0.4310 ca         1 35D       0.263300
     13 C13          3.9160     3.5820    -0.9770 ca         1 35D      -0.143300
     14 C14          3.6340     4.9240    -0.9950 ca         1 35D      -0.133000
     15 C15          2.4180     5.4030    -0.4720 ca         1 35D      -0.107000
     16 C16          1.4960     4.5380     0.0630 ca         1 35D      -0.173300
     17 C17          1.7680     3.1580     0.0930 ca         1 35D       0.334300
     18 N18          0.8630     2.2950     0.6210 nb         1 35D      -0.737000
     19 C19          1.1660     1.0400     0.6300 ca         1 35D       0.551300
     20 O20          0.3210     0.1470     1.1420 os         1 35D      -0.421100
     21 C21         -0.9160     0.6310     1.6280 cy         1 35D       0.114100
     22 C22         -1.9270     1.0420     0.5400 cy         1 35D       0.216800
     23 N23         -2.6820    -0.1550     0.8620 nn         1 35D      -0.795300
     24 C24         -1.8460    -0.5360     1.9870 cy         1 35D       0.216800
     25 C25         -3.9780    -0.4210     0.6040 ca         1 35D       0.701200
     26 C26         -4.6170    -1.5080     1.2800 ca         1 35D      -0.288300
     27 C27         -5.9140    -1.7750     0.9880 ca         1 35D      -0.048000
     28 C28         -6.6040    -0.9900     0.0280 ca         1 35D      -0.196300
     29 C29         -7.9490    -1.2170    -0.3250 ca         1 35D      -0.091000
     30 C30         -8.5650    -0.4290    -1.2640 ca         1 35D      -0.149000
     31 C31         -7.8480     0.6160    -1.8760 ca         1 35D      -0.107000
     32 C32         -6.5380     0.8590    -1.5470 ca         1 35D      -0.188300
     33 C33         -5.8790     0.0620    -0.5850 ca         1 35D       0.455600
     34 N34         -4.5870     0.3300    -0.2850 nb         1 35D      -0.755000
     35 H1           7.3510    -4.0370    -1.8260 hc         1 35D       0.059700
     36 H2           5.7150    -4.6160    -2.1550 hc         1 35D       0.059700
     37 H3           6.1290    -2.9360    -2.4660 hc         1 35D       0.059700
     38 H4           3.3750    -3.2840     1.5240 h1         1 35D       0.055450
     39 H5           5.0300    -2.8410     1.9230 h1         1 35D       0.055450
     40 H6           3.4560    -0.9220     2.1930 hc         1 35D       0.059700
     41 H7           4.6980    -0.5800     0.9940 hc         1 35D       0.059700
     42 H8           1.8530    -1.5060     0.4240 hc         1 35D       0.069700
     43 H9           2.4100    -1.3580    -1.9570 hc         1 35D       0.059700
     44 H10          4.0570    -0.8650    -1.5780 hc         1 35D       0.059700
     45 H11          3.9610    -3.2850    -2.0850 h1         1 35D       0.055450
     46 H12          2.7540    -3.5290    -0.8420 h1         1 35D       0.055450
     47 H13          4.8460     3.1960    -1.3740 ha         1 35D       0.151000
     48 H14          4.3490     5.6220    -1.4110 ha         1 35D       0.139000
     49 H15          2.2090     6.4650    -0.4940 ha         1 35D       0.137000
     50 H16          0.5590     4.8960     0.4690 ha         1 35D       0.150000
     51 H17         -0.7580     1.3680     2.4160 h1         1 35D       0.084700
     52 H18         -2.4540     1.9740     0.7560 h1         1 35D       0.068700
     53 H19         -1.5450     1.0800    -0.4820 h1         1 35D       0.068700
     54 H20         -1.4010    -1.5320     1.9150 h1         1 35D       0.068700
     55 H21         -2.3280    -0.4310     2.9630 h1         1 35D       0.068700
     56 H22         -4.0720    -2.0990     2.0040 ha         1 35D       0.139000
     57 H23         -6.4310    -2.5890     1.4820 ha         1 35D       0.134000
     58 H24         -8.4900    -2.0240     0.1550 ha         1 35D       0.128000
     59 H25         -9.5970    -0.6060    -1.5350 ha         1 35D       0.131000
     60 H26         -8.3390     1.2350    -2.6170 ha         1 35D       0.130000
     61 H27         -5.9860     1.6630    -2.0170 ha         1 35D       0.145000
@<TRIPOS>BOND
     1     1     2 1   
     2     1    35 1   
     3     1    36 1   
     4     1    37 1   
     5     2     3 2   
     6     2     4 1   
     7     4     5 1   
     8     4     9 1   
     9     5     6 1   
    10     5    38 1   
    11     5    39 1   
    12     6     7 1   
    13     6    40 1   
    14     6    41 1   
    15     7     8 1   
    16     7    10 1   
    17     7    42 1   
    18     8     9 1   
    19     8    43 1   
    20     8    44 1   
    21     9    45 1   
    22     9    46 1   
    23    10    11 ar  
    24    10    19 ar  
    25    11    12 ar  
    26    12    13 ar  
    27    12    17 ar  
    28    13    14 ar  
    29    13    47 1   
    30    14    15 ar  
    31    14    48 1   
    32    15    16 ar  
    33    15    49 1   
    34    16    17 ar  
    35    16    50 1   
    36    17    18 ar  
    37    18    19 ar  
    38    19    20 1   
    39    20    21 1   
    40    21    22 1   
    41    21    24 1   
    42    21    51 1   
    43    22    23 1   
    44    22    52 1   
    45    22    53 1   
    46    23    24 1   
    47    23    25 1   
    48    24    54 1   
    49    24    55 1   
    50    25    26 ar  
    51    25    34 ar  
    52    26    27 ar  
    53    26    56 1   
    54    27    28 ar  
    55    27    57 1   
    56    28    29 ar  
    57    28    33 ar  
    58    29    30 ar  
    59    29    58 1   
    60    30    31 ar  
    61    30    59 1   
    62    31    32 ar  
    63    31    60 1   
    64    32    33 ar  
    65    32    61 1   
    66    33    34 ar  
@<TRIPOS>SUBSTRUCTURE
     1 35D         1 TEMP              0 ****  ****    0 ROOT
