@<TRIPOS>MOLECULE
35D
   61    66     1     0     0
SMALL
No Charge or Current Charge


@<TRIPOS>ATOM
      1 C01          5.2510    -4.2860    -2.3280 c3         1 35D      -0.177100
      2 C02          5.6840    -3.5790    -1.0420 c          1 35D       0.608100
      3 O03          6.8760    -3.4740    -0.7810 o          1 35D      -0.607100
      4 N04          4.6970    -3.0860    -0.1550 n          1 35D      -0.411800
      5 C05          5.0490    -2.3770     1.1040 c6         1 35D       0.097000
      6 C06          4.6690    -0.8800     1.0090 c6         1 35D      -0.093900
      7 C07          3.1550    -0.7060     0.6710 c6         1 35D      -0.103000
      8 C08          2.8100    -1.5130    -0.6130 c6         1 35D      -0.093900
      9 C09          3.2470    -2.9920    -0.4830 c6         1 35D       0.097000
     10 C10          2.6870     0.7640     0.5580 ca         1 35D       0.333300
     11 N11          3.5950     1.6560     0.0660 nb         1 35D      -0.621000
     12 C12          3.1770     2.9420    -0.0570 ca         1 35D       0.198000
     13 C13          4.0690     3.9130    -0.5510 ca         1 35D      -0.060000
     14 C14          3.6730     5.2540    -0.6930 ca         1 35D      -0.115000
     15 C15          2.3730     5.6410    -0.3380 ca         1 35D      -0.089000
     16 C16          1.4680     4.6870     0.1560 ca         1 35D      -0.090000
     17 C17          1.8440     3.3390     0.3060 ca         1 35D       0.269000
     18 N18          0.9360     2.4480     0.7850 nb         1 35D      -0.737000
     19 C19          1.3520     1.1600     0.9090 ca         1 35D       0.551300
     20 O20          0.4580     0.2140     1.3770 os         1 35D      -0.444300
     21 C21         -0.9240     0.5360     1.6360 cy         1 35D       0.137300
     22 C22         -1.8390     0.8100     0.3900 cy         1 35D       0.216800
     23 N23         -2.8790     0.0080     1.0970 nn         1 35D      -0.795300
     24 C24         -1.8700    -0.6730     1.9560 cy         1 35D       0.216800
     25 C25         -4.1330    -0.3700     0.7050 ca         1 35D       0.635900
     26 C26         -4.8340    -1.3830     1.3760 ca         1 35D      -0.205000
     27 C27         -6.1180    -1.7320     0.9370 ca         1 35D      -0.030000
     28 C28         -6.6480    -1.0430    -0.1650 ca         1 35D      -0.131000
     29 C29         -7.9350    -1.3580    -0.6430 ca         1 35D      -0.073000
     30 C30         -8.4620    -0.6660    -1.7450 ca         1 35D      -0.131000
     31 C31         -7.7070     0.3400    -2.3680 ca         1 35D      -0.089000
     32 C32         -6.4220     0.6520    -1.8880 ca         1 35D      -0.105000
     33 C33         -5.8740    -0.0290    -0.7850 ca         1 35D       0.325000
     34 N34         -4.6360     0.2940    -0.3470 nb         1 35D      -0.755000
     35 H1           6.1000    -4.6840    -2.8940 hc         1 35D       0.059700
     36 H2           4.5270    -5.0710    -2.0850 hc         1 35D       0.059700
     37 H3           4.6640    -3.5900    -2.9390 hc         1 35D       0.059700
     38 H4           4.5070    -2.8420     1.9400 h1         1 35D       0.055450
     39 H5           6.1210    -2.4710     1.3250 h1         1 35D       0.055450
     40 H6           4.9060    -0.3790     1.9570 hc         1 35D       0.059700
     41 H7           5.2930    -0.4080     0.2380 hc         1 35D       0.059700
     42 H8           2.6000    -1.1610     1.5030 hc         1 35D       0.069700
     43 H9           1.7290    -1.4680    -0.8100 hc         1 35D       0.059700
     44 H10          3.3050    -1.0600    -1.4840 hc         1 35D       0.059700
     45 H11          2.9970    -3.5270    -1.4080 h1         1 35D       0.055450
     46 H12          2.6720    -3.4700     0.3230 h1         1 35D       0.055450
     47 H13          5.0780     3.6200    -0.8280 ha         1 35D       0.133000
     48 H14          4.3760     5.9910    -1.0760 ha         1 35D       0.121000
     49 H15          2.0640     6.6790    -0.4470 ha         1 35D       0.119000
     50 H16          0.4620     4.9930     0.4280 ha         1 35D       0.132000
     51 H17         -0.9970     1.3270     2.3910 h1         1 35D       0.084700
     52 H18         -2.0660     1.8710     0.2370 h1         1 35D       0.068700
     53 H19         -1.4650     0.3610    -0.5380 h1         1 35D       0.068700
     54 H20         -1.5050    -1.6310     1.5650 h1         1 35D       0.068700
     55 H21         -2.1190    -0.7640     3.0200 h1         1 35D       0.068700
     56 H22         -4.3890    -1.8900     2.2260 ha         1 35D       0.121000
     57 H23         -6.6820    -2.5150     1.4400 ha         1 35D       0.116000
     58 H24         -8.5250    -2.1360    -0.1640 ha         1 35D       0.110000
     59 H25         -9.4560    -0.9090    -2.1150 ha         1 35D       0.113000
     60 H26         -8.1140     0.8770    -3.2220 ha         1 35D       0.112000
     61 H27         -5.8430     1.4320    -2.3760 ha         1 35D       0.127000
@<TRIPOS>BOND
     1     1     2 1   
     2     1    35 1   
     3     1    36 1   
     4     1    37 1   
     5     2     3 2   
     6     2     4 1   
     7     4     5 1   
     8     4     9 1   
     9     5     6 1   
    10     5    38 1   
    11     5    39 1   
    12     6     7 1   
    13     6    40 1   
    14     6    41 1   
    15     7     8 1   
    16     7    10 1   
    17     7    42 1   
    18     8     9 1   
    19     8    43 1   
    20     8    44 1   
    21     9    45 1   
    22     9    46 1   
    23    10    11 ar  
    24    10    19 ar  
    25    11    12 ar  
    26    12    13 ar  
    27    12    17 ar  
    28    13    14 ar  
    29    13    47 1   
    30    14    15 ar  
    31    14    48 1   
    32    15    16 ar  
    33    15    49 1   
    34    16    17 ar  
    35    16    50 1   
    36    17    18 ar  
    37    18    19 ar  
    38    19    20 1   
    39    20    21 1   
    40    21    22 1   
    41    21    24 1   
    42    21    51 1   
    43    22    23 1   
    44    22    52 1   
    45    22    53 1   
    46    23    24 1   
    47    23    25 1   
    48    24    54 1   
    49    24    55 1   
    50    25    26 ar  
    51    25    34 ar  
    52    26    27 ar  
    53    26    56 1   
    54    27    28 ar  
    55    27    57 1   
    56    28    29 ar  
    57    28    33 ar  
    58    29    30 ar  
    59    29    58 1   
    60    30    31 ar  
    61    30    59 1   
    62    31    32 ar  
    63    31    60 1   
    64    32    33 ar  
    65    32    61 1   
    66    33    34 ar  
@<TRIPOS>SUBSTRUCTURE
     1 35D         1 TEMP              0 ****  ****    0 ROOT
