@<TRIPOS>MOLECULE
35E
   54    58     1     0     0
SMALL
No Charge or Current Charge


@<TRIPOS>ATOM
      1 O01         -4.3960    -4.8920    -1.2250 oh         1 35E      -0.662000
      2 C02         -4.9320    -3.6510    -1.6980 c3         1 35E       0.167600
      3 C03         -4.8050    -2.5170    -0.6390 c6         1 35E      -0.064700
      4 C04         -5.5280    -1.2260    -1.1060 c6         1 35E      -0.077400
      5 C05         -5.3920    -0.0830    -0.0690 c6         1 35E       0.208800
      6 N06         -3.9590     0.1730     0.2510 nh         1 35E      -0.753300
      7 C07         -3.2320    -1.0330     0.7320 c6         1 35E       0.208800
      8 C08         -3.3260    -2.1820    -0.3000 c6         1 35E      -0.077400
      9 C09         -3.5020     1.4680     0.6360 ca         1 35E       0.549900
     10 N10         -4.4540     2.2230     1.2500 nb         1 35E      -0.696000
     11 C11         -4.0530     3.4640     1.6410 ca         1 35E       0.285900
     12 C12         -2.7340     3.9510     1.4290 ca         1 35E       0.285900
     13 N13         -1.7670     3.2170     0.8120 nb         1 35E      -0.723000
     14 C14         -2.1500     1.9670     0.4090 ca         1 35E       0.518300
     15 O15         -1.2180     1.1790    -0.2500 os         1 35E      -0.432300
     16 C16          0.1490     1.6000    -0.4330 cy         1 35E       0.137300
     17 C17          1.1330     0.5250    -1.0090 cy         1 35E       0.215800
     18 N18          2.1250     1.0400    -0.0230 nn         1 35E      -0.795300
     19 C19          1.0650     1.6280     0.8420 cy         1 35E       0.215800
     20 C20          3.3980     0.6270     0.2630 ca         1 35E       0.637900
     21 C21          4.0510     1.0310     1.4360 ca         1 35E      -0.203000
     22 C22          5.3550     0.5820     1.6810 ca         1 35E      -0.031000
     23 C23          5.9530    -0.2590     0.7290 ca         1 35E      -0.132000
     24 C24          7.2630    -0.7370     0.9310 ca         1 35E      -0.073000
     25 C25          7.8580    -1.5770    -0.0230 ca         1 35E      -0.132000
     26 C26          7.1470    -1.9410    -1.1770 ca         1 35E      -0.090000
     27 C27          5.8390    -1.4630    -1.3760 ca         1 35E      -0.105000
     28 C28          5.2230    -0.6190    -0.4330 ca         1 35E       0.326000
     29 N29          3.9650    -0.1760    -0.6520 nb         1 35E      -0.760000
     30 H1          -4.5180    -5.5480    -1.9470 ho         1 35E       0.443000
     31 H2          -4.4130    -3.3380    -2.6140 h1         1 35E       0.017700
     32 H3          -5.9940    -3.7780    -1.9450 h1         1 35E       0.017700
     33 H4          -5.3030    -2.8830     0.2710 hc         1 35E       0.057700
     34 H5          -5.1120    -0.8910    -2.0660 hc         1 35E       0.053700
     35 H6          -6.5930    -1.4300    -1.2830 hc         1 35E       0.053700
     36 H7          -5.8650     0.8180    -0.4880 h1         1 35E       0.047450
     37 H8          -5.9420    -0.3510     0.8460 h1         1 35E       0.047450
     38 H9          -2.1720    -0.8140     0.9210 h1         1 35E       0.047450
     39 H10         -3.6640    -1.3700     1.6860 h1         1 35E       0.047450
     40 H11         -2.8150    -3.0670     0.1000 hc         1 35E       0.053700
     41 H12         -2.7860    -1.8940    -1.2130 hc         1 35E       0.053700
     42 H13         -4.7980     4.0840     2.1370 h4         1 35E       0.030100
     43 H14         -2.4530     4.9500     1.7580 h4         1 35E       0.030100
     44 H15          0.1860     2.5370    -0.9990 h1         1 35E       0.078700
     45 H16          0.8060    -0.5080    -0.8370 h1         1 35E       0.068950
     46 H17          1.3780     0.6760    -2.0670 h1         1 35E       0.068950
     47 H18          1.2540     2.6390     1.2220 h1         1 35E       0.068950
     48 H19          0.7150     0.9740     1.6500 h1         1 35E       0.068950
     49 H20          3.5550     1.6850     2.1450 ha         1 35E       0.122000
     50 H21          5.8850     0.8810     2.5840 ha         1 35E       0.115000
     51 H22          7.8190    -0.4580     1.8240 ha         1 35E       0.109000
     52 H23          8.8690    -1.9460     0.1320 ha         1 35E       0.113000
     53 H24          7.6060    -2.5920    -1.9180 ha         1 35E       0.112000
     54 H25          5.2940    -1.7480    -2.2720 ha         1 35E       0.127000
@<TRIPOS>BOND
     1     1     2 1   
     2     1    30 1   
     3     2     3 1   
     4     2    31 1   
     5     2    32 1   
     6     3     4 1   
     7     3     8 1   
     8     3    33 1   
     9     4     5 1   
    10     4    34 1   
    11     4    35 1   
    12     5     6 1   
    13     5    36 1   
    14     5    37 1   
    15     6     7 1   
    16     6     9 1   
    17     7     8 1   
    18     7    38 1   
    19     7    39 1   
    20     8    40 1   
    21     8    41 1   
    22     9    10 ar  
    23     9    14 ar  
    24    10    11 ar  
    25    11    12 ar  
    26    11    42 1   
    27    12    13 ar  
    28    12    43 1   
    29    13    14 ar  
    30    14    15 1   
    31    15    16 1   
    32    16    17 1   
    33    16    19 1   
    34    16    44 1   
    35    17    18 1   
    36    17    45 1   
    37    17    46 1   
    38    18    19 1   
    39    18    20 1   
    40    19    47 1   
    41    19    48 1   
    42    20    21 ar  
    43    20    29 ar  
    44    21    22 ar  
    45    21    49 1   
    46    22    23 ar  
    47    22    50 1   
    48    23    24 ar  
    49    23    28 ar  
    50    24    25 ar  
    51    24    51 1   
    52    25    26 ar  
    53    25    52 1   
    54    26    27 ar  
    55    26    53 1   
    56    27    28 ar  
    57    27    54 1   
    58    28    29 ar  
@<TRIPOS>SUBSTRUCTURE
     1 35E         1 TEMP              0 ****  ****    0 ROOT
