@<TRIPOS>MOLECULE
35E
   54    58     1     0     0
SMALL
bcc


@<TRIPOS>ATOM
      1 O01         -4.2570    -4.7520    -1.2560 oh         1 35E      -0.599800
      2 C02         -4.8370    -3.5490    -1.7100 c3         1 35E       0.144400
      3 C03         -4.6970    -2.4800    -0.6420 c6         1 35E      -0.064700
      4 C04         -5.3800    -1.1920    -1.0980 c6         1 35E      -0.077400
      5 C05         -5.2130    -0.0670    -0.0860 c6         1 35E       0.208800
      6 N06         -3.7990     0.1560     0.1650 nh         1 35E      -0.753300
      7 C07         -3.1410    -1.0360     0.6960 c6         1 35E       0.208800
      8 C08         -3.2410    -2.1840    -0.2930 c6         1 35E      -0.077400
      9 C09         -3.4190     1.3930     0.6300 ca         1 35E       0.549900
     10 N10         -4.3120     2.2170     1.1320 nb         1 35E      -0.696000
     11 C11         -3.9240     3.4370     1.5260 ca         1 35E       0.285900
     12 C12         -2.6170     3.8360     1.4340 ca         1 35E       0.285900
     13 N13         -1.6930     3.0260     0.8960 nb         1 35E      -0.723000
     14 C14         -2.0710     1.8510     0.4890 ca         1 35E       0.518300
     15 O15         -1.2010     1.0390    -0.1200 os         1 35E      -0.409100
     16 C16          0.0870     1.5510    -0.3770 cy         1 35E       0.114100
     17 C17          1.0220     0.4610    -0.9220 cy         1 35E       0.215800
     18 N18          1.8380     0.6270     0.2660 nn         1 35E      -0.795300
     19 C19          1.0250     1.6900     0.8360 cy         1 35E       0.215800
     20 C20          3.1480     0.3510     0.4150 ca         1 35E       0.703200
     21 C21          3.8540     0.8880     1.5380 ca         1 35E      -0.286300
     22 C22          5.1710     0.5940     1.6730 ca         1 35E      -0.049000
     23 C23          5.8160    -0.2380     0.7200 ca         1 35E      -0.197300
     24 C24          7.1790    -0.5840     0.8020 ca         1 35E      -0.091000
     25 C25          7.7500    -1.3940    -0.1450 ca         1 35E      -0.150000
     26 C26          6.9680    -1.8820    -1.2090 ca         1 35E      -0.108000
     27 C27          5.6390    -1.5580    -1.3110 ca         1 35E      -0.188300
     28 C28          5.0250    -0.7250    -0.3490 ca         1 35E       0.456600
     29 N29          3.7130    -0.4220    -0.4850 nb         1 35E      -0.760000
     30 H1          -4.3460    -5.4100    -1.9510 ho         1 35E       0.404000
     31 H2          -4.3540    -3.1950    -2.6320 h1         1 35E       0.017700
     32 H3          -5.9020    -3.6850    -1.9430 h1         1 35E       0.017700
     33 H4          -5.2070    -2.8300     0.2650 hc         1 35E       0.057700
     34 H5          -4.9560    -0.8720    -2.0560 hc         1 35E       0.053700
     35 H6          -6.4470    -1.3620    -1.2600 hc         1 35E       0.053700
     36 H7          -5.6570     0.8490    -0.4740 h1         1 35E       0.047450
     37 H8          -5.7470    -0.3150     0.8420 h1         1 35E       0.047450
     38 H9          -2.0990    -0.8270     0.9220 h1         1 35E       0.047450
     39 H10         -3.6220    -1.3220     1.6430 h1         1 35E       0.047450
     40 H11         -2.7550    -3.0630     0.1350 hc         1 35E       0.053700
     41 H12         -2.6920    -1.9170    -1.2020 hc         1 35E       0.053700
     42 H13         -4.6870     4.0940     1.9250 h4         1 35E       0.030100
     43 H14         -2.2920     4.8130     1.7660 h4         1 35E       0.030100
     44 H15          0.0270     2.4490    -0.9950 h1         1 35E       0.078700
     45 H16          0.5720    -0.5290    -1.0280 h1         1 35E       0.068950
     46 H17          1.5290     0.7210    -1.8540 h1         1 35E       0.068950
     47 H18          1.5240     2.6600     0.9050 h1         1 35E       0.068950
     48 H19          0.5850     1.4470     1.8060 h1         1 35E       0.068950
     49 H20          3.3450     1.5130     2.2590 ha         1 35E       0.140000
     50 H21          5.7380     0.9890     2.5070 ha         1 35E       0.133000
     51 H22          7.7700    -0.1980     1.6250 ha         1 35E       0.127000
     52 H23          8.7970    -1.6600    -0.0790 ha         1 35E       0.131000
     53 H24          7.4230    -2.5220    -1.9550 ha         1 35E       0.130000
     54 H25          5.0370    -1.9350    -2.1290 ha         1 35E       0.145000
@<TRIPOS>BOND
     1     1     2 1   
     2     1    30 1   
     3     2     3 1   
     4     2    31 1   
     5     2    32 1   
     6     3     4 1   
     7     3     8 1   
     8     3    33 1   
     9     4     5 1   
    10     4    34 1   
    11     4    35 1   
    12     5     6 1   
    13     5    36 1   
    14     5    37 1   
    15     6     7 1   
    16     6     9 1   
    17     7     8 1   
    18     7    38 1   
    19     7    39 1   
    20     8    40 1   
    21     8    41 1   
    22     9    10 ar  
    23     9    14 ar  
    24    10    11 ar  
    25    11    12 ar  
    26    11    42 1   
    27    12    13 ar  
    28    12    43 1   
    29    13    14 ar  
    30    14    15 1   
    31    15    16 1   
    32    16    17 1   
    33    16    19 1   
    34    16    44 1   
    35    17    18 1   
    36    17    45 1   
    37    17    46 1   
    38    18    19 1   
    39    18    20 1   
    40    19    47 1   
    41    19    48 1   
    42    20    21 ar  
    43    20    29 ar  
    44    21    22 ar  
    45    21    49 1   
    46    22    23 ar  
    47    22    50 1   
    48    23    24 ar  
    49    23    28 ar  
    50    24    25 ar  
    51    24    51 1   
    52    25    26 ar  
    53    25    52 1   
    54    26    27 ar  
    55    26    53 1   
    56    27    28 ar  
    57    27    54 1   
    58    28    29 ar  
@<TRIPOS>SUBSTRUCTURE
     1 35E         1 TEMP              0 ****  ****    0 ROOT
