@<TRIPOS>MOLECULE
35F
   42    46     1     0     0
SMALL
abcg2


@<TRIPOS>ATOM
      1 C4           3.1470    -0.0110    -0.0240 ca         1 35F      -0.003000
      2 C5           2.2000     0.9870    -0.2680 ca         1 35F      -0.225900
      3 C6           2.5880     2.3380    -0.2180 ca         1 35F      -0.031200
      4 C10         -0.1600    -0.0660    -0.6910 ca         1 35F      -0.066900
      5 C13         -2.0000    -2.1350    -0.9570 ca         1 35F      -0.159000
      6 C15          0.2470    -1.3040    -1.1830 ca         1 35F      -0.119000
      7 C17          5.4770    -0.6580     0.4920 cc         1 35F       0.597500
      8 C20          7.3280    -1.5370     0.9150 cd         1 35F       0.414400
      9 C22         -4.4910     0.3370     0.1360 c          1 35F       0.544600
     10 C24         -5.9120     0.1110     0.4270 cc         1 35F       0.046500
     11 C26         -8.0780     0.2400     0.9070 cd         1 35F      -0.199000
     12 O23         -4.0420     1.4720     0.1460 o          1 35F      -0.566100
     13 O28         -6.4140    -1.1440     0.4290 os         1 35F      -0.245000
     14 C27         -7.7220    -1.0550     0.7200 cc         1 35F       0.148900
     15 C25         -6.8940     1.0040     0.7160 cd         1 35F      -0.097000
     16 C12         -2.4220    -0.8920    -0.4750 ca         1 35F      -0.025000
     17 C11         -1.4950     0.1380    -0.3380 ca         1 35F      -0.105000
     18 C14         -0.6780    -2.3310    -1.3060 ca         1 35F      -0.088000
     19 C9           0.7960     1.0350    -0.5440 cc         1 35F       0.403500
     20 N8           0.4020     2.2840    -0.6420 nd         1 35F      -0.502100
     21 N7           1.4670     3.0560    -0.4480 na         1 35F      -0.054400
     22 C3           3.9050     2.7270     0.0430 ca         1 35F      -0.144000
     23 C2           4.8180     1.7250     0.2630 ca         1 35F      -0.039000
     24 C1           4.4540     0.3580     0.2360 ca         1 35F      -0.162500
     25 N21          6.7720    -0.3590     0.7540 nc         1 35F      -0.702000
     26 N19          6.4100    -2.4880     0.7580 na         1 35F      -0.192700
     27 N18          5.2230    -1.9500     0.4870 nd         1 35F      -0.538800
     28 H4           2.8710    -1.0570    -0.0310 ha         1 35F       0.135000
     29 H13         -2.7130    -2.9440    -1.0620 ha         1 35F       0.110000
     30 H15          1.2690    -1.4680    -1.4940 ha         1 35F       0.121000
     31 H20          8.3630    -1.7400     1.1400 h5         1 35F       0.064100
     32 H26         -9.0620     0.6050     1.1500 ha         1 35F       0.148000
     33 H27         -8.2720    -1.9810     0.7630 h4         1 35F       0.056100
     34 H25         -6.7880     2.0740     0.7820 ha         1 35F       0.160000
     35 HN16        -4.2780    -1.6560    -0.1380 hn         1 35F       0.163000
     36 H11         -1.7930     1.0970     0.0530 ha         1 35F       0.159000
     37 H14         -0.3650    -3.2940    -1.6880 ha         1 35F       0.114000
     38 H3           4.1940     3.7680     0.0770 ha         1 35F       0.122000
     39 H2           5.8480     1.9860     0.4700 ha         1 35F       0.135000
     40 HN19         6.5250    -3.4880     0.8160 hn         1 35F       0.379000
     41 H141         1.3720     4.0570    -0.4980 hn         1 35F       0.379000
     42 N16         -3.7720    -0.7820    -0.1310 ns         1 35F      -0.136000
@<TRIPOS>BOND
     1     1     2 ar  
     2     1    24 ar  
     3     1    28 1   
     4     2     3 ar  
     5     2    19 1   
     6     3    21 1   
     7     3    22 ar  
     8     4     6 ar  
     9     4    17 ar  
    10     4    19 1   
    11     5    16 ar  
    12     5    18 ar  
    13     5    29 1   
    14     6    18 ar  
    15     6    30 1   
    16     7    24 1   
    17     7    25 1   
    18     7    27 2   
    19     8    25 2   
    20     8    26 1   
    21     8    31 1   
    22     9    10 1   
    23     9    12 2   
    24     9    42 1   
    25    10    13 1   
    26    10    15 2   
    27    11    14 2   
    28    11    15 1   
    29    11    32 1   
    30    13    14 1   
    31    14    33 1   
    32    15    34 1   
    33    16    17 ar  
    34    16    42 1   
    35    17    36 1   
    36    18    37 1   
    37    19    20 2   
    38    20    21 1   
    39    21    41 1   
    40    22    23 ar  
    41    22    38 1   
    42    23    24 ar  
    43    23    39 1   
    44    26    27 1   
    45    26    40 1   
    46    35    42 1   
@<TRIPOS>SUBSTRUCTURE
     1 35F         1 TEMP              0 ****  ****    0 ROOT
