@<TRIPOS>MOLECULE
35F
   42    46     1     0     0
SMALL
No Charge or Current Charge


@<TRIPOS>ATOM
      1 C4           3.0570     0.0820    -0.0430 ca         1 35F      -0.003000
      2 C5           2.2440     1.1550    -0.4410 ca         1 35F      -0.225900
      3 C6           2.7170     2.4260    -0.4990 ca         1 35F      -0.031200
      4 C10         -0.0950     0.1230    -0.8570 ca         1 35F      -0.066900
      5 C13         -1.9300    -2.0040    -1.1210 ca         1 35F      -0.159000
      6 C15          0.3060    -1.1030    -1.4290 ca         1 35F      -0.119000
      7 C17          5.3120    -0.7580     0.6610 cc         1 35F       0.597500
      8 C20          7.0990    -1.7090     1.2750 cd         1 35F       0.414400
      9 C22         -4.4590     0.3120     0.4440 c          1 35F       0.544600
     10 C24         -5.8850    -0.0660     0.6310 cc         1 35F       0.046500
     11 C26         -8.0480    -0.0520     1.1770 cd         1 35F      -0.199000
     12 O23         -3.9930     1.3870     0.8090 o          1 35F      -0.566100
     13 O28         -6.4240    -1.2740     0.2270 os         1 35F      -0.245000
     14 C27         -7.7590    -1.2460     0.5730 cc         1 35F       0.148900
     15 C25         -6.8570     0.7020     1.2160 cd         1 35F      -0.097000
     16 C12         -2.3650    -0.7820    -0.5780 ca         1 35F      -0.025000
     17 C11         -1.4420     0.2820    -0.4630 ca         1 35F      -0.105000
     18 C14         -0.6040    -2.1630    -1.5510 ca         1 35F      -0.088000
     19 C9           0.8370     1.2560    -0.7730 cc         1 35F       0.403500
     20 N8           0.4670     2.5310    -0.9870 nd         1 35F      -0.502100
     21 N7           1.6610     3.2460    -0.8290 na         1 35F      -0.054400
     22 C3           4.0480     2.7390    -0.2110 ca         1 35F      -0.144000
     23 C2           4.9060     1.6810     0.1580 ca         1 35F      -0.039000
     24 C1           4.4220     0.3420     0.2530 ca         1 35F      -0.162500
     25 N21          6.6220    -0.5190     0.9580 nc         1 35F      -0.702000
     26 N19          6.0770    -2.6320     1.1630 na         1 35F      -0.192700
     27 N18          4.9120    -2.0150     0.7640 nd         1 35F      -0.538800
     28 H4           2.6460    -0.9210     0.0480 ha         1 35F       0.135000
     29 H13         -2.6260    -2.8340    -1.2230 ha         1 35F       0.110000
     30 H15          1.3200    -1.2320    -1.8010 ha         1 35F       0.121000
     31 H20          8.1080    -1.9680     1.5760 h5         1 35F       0.064100
     32 H26         -9.0200     0.2500     1.5550 ha         1 35F       0.148000
     33 H27         -8.3640    -2.1110     0.3380 h4         1 35F       0.056100
     34 H25         -6.7280     1.6990     1.6280 ha         1 35F       0.160000
     35 HN16        -4.2740    -1.5140    -0.4020 hn         1 35F       0.163000
     36 H11         -1.7500     1.2430    -0.0620 ha         1 35F       0.159000
     37 H14         -0.2840    -3.1070    -1.9880 ha         1 35F       0.114000
     38 H3           4.4110     3.7630    -0.2600 ha         1 35F       0.122000
     39 H2           5.9450     1.9100     0.3840 ha         1 35F       0.135000
     40 HN19         6.1490    -3.6300     1.3450 hn         1 35F       0.379000
     41 H141         1.6960     4.2590    -0.9380 hn         1 35F       0.379000
     42 N16         -3.7290    -0.6900    -0.1830 ns         1 35F      -0.136000
@<TRIPOS>BOND
     1     1     2 ar  
     2     1    24 ar  
     3     1    28 1   
     4     2     3 ar  
     5     2    19 1   
     6     3    21 1   
     7     3    22 ar  
     8     4     6 ar  
     9     4    17 ar  
    10     4    19 1   
    11     5    16 ar  
    12     5    18 ar  
    13     5    29 1   
    14     6    18 ar  
    15     6    30 1   
    16     7    24 1   
    17     7    25 1   
    18     7    27 2   
    19     8    25 2   
    20     8    26 1   
    21     8    31 1   
    22     9    10 1   
    23     9    12 2   
    24     9    42 1   
    25    10    13 1   
    26    10    15 2   
    27    11    14 2   
    28    11    15 1   
    29    11    32 1   
    30    13    14 1   
    31    14    33 1   
    32    15    34 1   
    33    16    17 ar  
    34    16    42 1   
    35    17    36 1   
    36    18    37 1   
    37    19    20 2   
    38    20    21 1   
    39    21    41 1   
    40    22    23 ar  
    41    22    38 1   
    42    23    24 ar  
    43    23    39 1   
    44    26    27 1   
    45    26    40 1   
    46    35    42 1   
@<TRIPOS>SUBSTRUCTURE
     1 35F         1 TEMP              0 ****  ****    0 ROOT
