@<TRIPOS>MOLECULE
35H
   55    57     1     0     0
SMALL
No Charge or Current Charge


@<TRIPOS>ATOM
      1 C1          -3.9530    -1.3420     0.2780 ca         1 35H      -0.111300
      2 C2          -4.1570    -0.4190     1.3210 ca         1 35H      -0.095500
      3 C3          -4.9540    -1.5050    -0.6990 ca         1 35H      -0.095500
      4 C4          -5.3400     0.3370     1.3820 ca         1 35H      -0.102500
      5 C5          -6.1380    -0.7490    -0.6380 ca         1 35H      -0.102500
      6 C6          -6.3410     0.1810     0.4020 ca         1 35H      -0.110300
      7 C7          -7.6220     1.0140     0.4730 c3         1 35H       0.216600
      8 C8          -7.8110     1.9320    -0.7670 c3         1 35H       0.125600
      9 O9          -9.0510     2.6570    -0.6700 oh         1 35H      -0.649000
     10 C11         -2.6670    -2.1630     0.2090 c3         1 35H       0.140300
     11 C15          0.7360    -0.2630     0.0950 ca         1 35H      -0.088600
     12 C17          2.5400     1.3830     0.3050 ca         1 35H      -0.019000
     13 C18          3.2070     0.8070    -0.7940 ca         1 35H      -0.298500
     14 C19          1.3210     0.8440     0.7490 ca         1 35H      -0.100000
     15 C21          1.4280    -0.8480    -0.9910 ca         1 35H      -0.100000
     16 C27          6.6990    -1.6070     2.7490 ca         1 35H      -0.106000
     17 C30          5.7330     0.2660     1.5280 ca         1 35H      -0.106500
     18 C31          6.8820    -1.5010     0.3240 ca         1 35H      -0.106500
     19 S22          4.7790     1.4720    -1.3640 sy         1 35H       1.143600
     20 O24          5.1400     2.6780    -0.6130 o          1 35H      -0.528500
     21 N23          5.9300     0.3270    -0.9230 nu         1 35H      -0.865100
     22 C26          6.1710    -0.2870     0.3070 ca         1 35H       0.226000
     23 C29          7.1450    -2.1610     1.5380 ca         1 35H      -0.100000
     24 C28          5.9940    -0.3920     2.7440 ca         1 35H      -0.100000
     25 C20          2.6480    -0.3140    -1.4370 ca         1 35H      -0.019000
     26 C13         -0.5730    -0.8270     0.6190 c          1 35H       0.610700
     27 O16         -0.7900    -0.8430     1.8250 o          1 35H      -0.592100
     28 N12         -1.4920    -1.4090    -0.2920 n          1 35H      -0.400800
     29 C14         -1.5510    -0.9720    -1.7090 c3         1 35H       0.087300
     30 O10         -8.7650     0.1550     0.5930 oh         1 35H      -0.636000
     31 H1          -3.3980    -0.2840     2.0870 ha         1 35H       0.120000
     32 H2          -4.8160    -2.2170    -1.5100 ha         1 35H       0.120000
     33 H3          -5.4760     1.0460     2.1960 ha         1 35H       0.115500
     34 H4          -6.9010    -0.8920    -1.4000 ha         1 35H       0.115500
     35 H5          -7.5610     1.6710     1.3530 h1         1 35H       0.090700
     36 H6          -6.9650     2.6310    -0.8210 h1         1 35H       0.024700
     37 H7          -7.7980     1.3240    -1.6820 h1         1 35H       0.024700
     38 H8          -9.0960     3.2580    -1.4480 ho         1 35H       0.445000
     39 H9          -2.4510    -2.5760     1.2020 h1         1 35H       0.067700
     40 H10         -2.8270    -3.0250    -0.4530 h1         1 35H       0.067700
     41 H11          2.9600     2.2450     0.8220 ha         1 35H       0.141000
     42 H12          0.8190     1.2990     1.6010 ha         1 35H       0.128500
     43 H13          1.0390    -1.7390    -1.4780 ha         1 35H       0.128500
     44 H15          5.1960     1.2070     1.5500 ha         1 35H       0.129000
     45 H16          7.2320    -1.9400    -0.6070 ha         1 35H       0.129000
     46 H17          6.1720    -0.1780    -1.7650 hn         1 35H       0.487000
     47 H18          7.6940    -3.1000     1.5390 ha         1 35H       0.120500
     48 H19          5.6520     0.0420     3.6810 ha         1 35H       0.120500
     49 H20          3.1630    -0.7840    -2.2740 ha         1 35H       0.141000
     50 H21         -1.0590    -1.7150    -2.3480 h1         1 35H       0.045367
     51 H22         -2.5930    -0.8700    -2.0350 h1         1 35H       0.045367
     52 H23         -1.0610     0.0020    -1.8350 h1         1 35H       0.045367
     53 H24         -9.5240     0.7200     0.3260 ho         1 35H       0.441000
     54 H14          6.9020    -2.1150     3.6890 ha         1 35H       0.118000
     55 O25          4.8340     1.4140    -2.8260 o          1 35H      -0.528500
@<TRIPOS>BOND
     1     1     2 ar  
     2     1     3 ar  
     3     1    10 1   
     4     2     4 ar  
     5     2    31 1   
     6     3     5 ar  
     7     3    32 1   
     8     4     6 ar  
     9     4    33 1   
    10     5     6 ar  
    11     5    34 1   
    12     6     7 1   
    13     7     8 1   
    14     7    30 1   
    15     7    35 1   
    16     8     9 1   
    17     8    36 1   
    18     8    37 1   
    19     9    38 1   
    20    10    28 1   
    21    10    39 1   
    22    10    40 1   
    23    11    14 ar  
    24    11    15 ar  
    25    11    26 1   
    26    12    13 ar  
    27    12    14 ar  
    28    12    41 1   
    29    13    19 1   
    30    13    25 ar  
    31    14    42 1   
    32    15    25 ar  
    33    15    43 1   
    34    16    23 ar  
    35    16    24 ar  
    36    16    54 1   
    37    17    22 ar  
    38    17    24 ar  
    39    17    44 1   
    40    18    22 ar  
    41    18    23 ar  
    42    18    45 1   
    43    19    20 2   
    44    19    21 1   
    45    19    55 2   
    46    21    22 1   
    47    21    46 1   
    48    23    47 1   
    49    24    48 1   
    50    25    49 1   
    51    26    27 2   
    52    26    28 1   
    53    28    29 1   
    54    29    50 1   
    55    29    51 1   
    56    29    52 1   
    57    30    53 1   
@<TRIPOS>SUBSTRUCTURE
     1 35H         1 TEMP              0 ****  ****    0 ROOT
