@<TRIPOS>MOLECULE
35H
   55    57     1     0     0
SMALL
abcg2


@<TRIPOS>ATOM
      1 C1          -3.8630    -1.6240    -0.2870 ca         1 35H      -0.111300
      2 C2          -3.7710    -0.8940     0.8980 ca         1 35H      -0.095500
      3 C3          -5.0450    -1.5570    -1.0130 ca         1 35H      -0.095500
      4 C4          -4.8330    -0.1190     1.3290 ca         1 35H      -0.102500
      5 C5          -6.1140    -0.7830    -0.5760 ca         1 35H      -0.102500
      6 C6          -6.0180    -0.0470     0.5970 ca         1 35H      -0.110300
      7 C7          -7.1390     0.8480     1.0820 c3         1 35H       0.216600
      8 C8          -6.8040     2.2940     0.7360 c3         1 35H       0.125600
      9 O9          -7.7860     3.1390     1.2800 oh         1 35H      -0.649000
     10 C11         -2.7110    -2.4700    -0.7680 c3         1 35H       0.140300
     11 C15          0.7610    -0.9690    -0.6370 ca         1 35H      -0.088600
     12 C17          2.4880     0.6440    -0.1800 ca         1 35H      -0.019000
     13 C18          3.1890     0.1740    -1.2840 ca         1 35H      -0.298500
     14 C19          1.2800     0.0540     0.1510 ca         1 35H      -0.100000
     15 C21          1.4730    -1.4230    -1.7430 ca         1 35H      -0.100000
     16 C27          5.4880     0.1740     3.4660 ca         1 35H      -0.106000
     17 C30          6.1480     1.2060     1.3910 ca         1 35H      -0.106500
     18 C31          5.1910    -1.0060     1.3910 ca         1 35H      -0.106500
     19 S22          4.7780     0.8630    -1.6530 sy         1 35H       1.143600
     20 O24          4.7850     2.2370    -1.1900 o          1 35H      -0.528500
     21 N23          5.8640     0.0230    -0.7130 nu         1 35H      -0.865100
     22 C26          5.7280     0.0750     0.7000 ca         1 35H       0.226000
     23 C29          5.0830    -0.9590     2.7730 ca         1 35H      -0.100000
     24 C28          6.0160     1.2550     2.7710 ca         1 35H      -0.100000
     25 C20          2.6980    -0.8630    -2.0650 ca         1 35H      -0.019000
     26 C13         -0.5020    -1.6470    -0.2000 c          1 35H       0.610700
     27 O16         -0.5410    -2.1500     0.9150 o          1 35H      -0.592100
     28 N12         -1.5230    -1.6880    -1.0740 n          1 35H      -0.400800
     29 C14         -1.5990    -0.9160    -2.2980 c3         1 35H       0.087300
     30 O10         -8.4040     0.4610     0.6080 oh         1 35H      -0.636000
     31 H1          -2.8700    -0.9390     1.4960 ha         1 35H       0.120000
     32 H2          -5.1370    -2.1200    -1.9350 ha         1 35H       0.120000
     33 H3          -4.7430     0.4360     2.2560 ha         1 35H       0.115500
     34 H4          -7.0210    -0.7680    -1.1680 ha         1 35H       0.115500
     35 H5          -7.1910     0.7640     2.1740 h1         1 35H       0.090700
     36 H6          -5.8040     2.5200     1.1270 h1         1 35H       0.024700
     37 H7          -6.7420     2.3870    -0.3600 h1         1 35H       0.024700
     38 H8          -7.5670     4.0440     1.0390 ho         1 35H       0.445000
     39 H9          -2.4550    -3.2240    -0.0260 h1         1 35H       0.067700
     40 H10         -3.0020    -3.0010    -1.6780 h1         1 35H       0.067700
     41 H11          2.8700     1.4590     0.4190 ha         1 35H       0.141000
     42 H12          0.7370     0.4050     1.0180 ha         1 35H       0.128500
     43 H13          1.0790    -2.2230    -2.3560 ha         1 35H       0.128500
     44 H15          6.5870     2.0370     0.8550 ha         1 35H       0.129000
     45 H16          4.8570    -1.8830     0.8500 ha         1 35H       0.129000
     46 H17          6.0260    -0.9090    -1.0830 hn         1 35H       0.487000
     47 H18          4.6720    -1.8060     3.3050 ha         1 35H       0.120500
     48 H19          6.3430     2.1360     3.3060 ha         1 35H       0.120500
     49 H20          3.2500    -1.2300    -2.9190 ha         1 35H       0.141000
     50 H21         -1.5070    -1.5570    -3.1760 h1         1 35H       0.045367
     51 H22         -2.5640    -0.4110    -2.3440 h1         1 35H       0.045367
     52 H23         -0.8310    -0.1500    -2.3400 h1         1 35H       0.045367
     53 H24         -8.5400     0.8170    -0.2770 ho         1 35H       0.441000
     54 H14          5.3970     0.2140     4.5430 ha         1 35H       0.118000
     55 O25          5.1230     0.5440    -3.0260 o          1 35H      -0.528500
@<TRIPOS>BOND
     1     1     2 ar  
     2     1     3 ar  
     3     1    10 1   
     4     2     4 ar  
     5     2    31 1   
     6     3     5 ar  
     7     3    32 1   
     8     4     6 ar  
     9     4    33 1   
    10     5     6 ar  
    11     5    34 1   
    12     6     7 1   
    13     7     8 1   
    14     7    30 1   
    15     7    35 1   
    16     8     9 1   
    17     8    36 1   
    18     8    37 1   
    19     9    38 1   
    20    10    28 1   
    21    10    39 1   
    22    10    40 1   
    23    11    14 ar  
    24    11    15 ar  
    25    11    26 1   
    26    12    13 ar  
    27    12    14 ar  
    28    12    41 1   
    29    13    19 1   
    30    13    25 ar  
    31    14    42 1   
    32    15    25 ar  
    33    15    43 1   
    34    16    23 ar  
    35    16    24 ar  
    36    16    54 1   
    37    17    22 ar  
    38    17    24 ar  
    39    17    44 1   
    40    18    22 ar  
    41    18    23 ar  
    42    18    45 1   
    43    19    20 2   
    44    19    21 1   
    45    19    55 2   
    46    21    22 1   
    47    21    46 1   
    48    23    47 1   
    49    24    48 1   
    50    25    49 1   
    51    26    27 2   
    52    26    28 1   
    53    28    29 1   
    54    29    50 1   
    55    29    51 1   
    56    29    52 1   
    57    30    53 1   
@<TRIPOS>SUBSTRUCTURE
     1 35H         1 TEMP              0 ****  ****    0 ROOT
