@<TRIPOS>MOLECULE
35I
   66    69     1     0     0
SMALL
No Charge or Current Charge


@<TRIPOS>ATOM
      1 O01          2.1920    -2.2680    -0.5770 o          1 35I      -0.596100
      2 C02          1.7620    -1.2670    -0.0130 c          1 35I       0.629300
      3 N03          2.6360    -0.2130     0.3860 n          1 35I      -0.189800
      4 N04          2.1830     0.9130     1.0710 n2         1 35I      -0.434300
      5 C05          2.7920     1.3160     2.1480 ce         1 35I       0.399800
      6 C06          4.2010     0.9020     2.4110 ca         1 35I      -0.164900
      7 C07          4.8700     1.2870     3.5890 ca         1 35I      -0.077000
      8 C08          6.1960     0.8760     3.8100 ca         1 35I      -0.108000
      9 C09          6.8570     0.0820     2.8580 ca         1 35I      -0.094000
     10 C10          6.1930    -0.3040     1.6800 ca         1 35I      -0.095000
     11 C11          4.8650     0.1060     1.4540 ca         1 35I      -0.083300
     12 C12          4.1140    -0.2930     0.1740 c6         1 35I       0.145000
     13 C13          4.5910     0.5810    -1.0230 c3         1 35I      -0.089400
     14 C14          3.9670     0.2020    -2.3930 c3         1 35I      -0.147400
     15 C15          4.4820     1.0380    -3.5860 c3         1 35I       0.298000
     16 F16          4.2220     2.3540    -3.4080 f          1 35I      -0.119667
     17 F17          5.8160     0.8910    -3.7460 f          1 35I      -0.119667
     18 F18          3.8810     0.6480    -4.7320 f          1 35I      -0.119667
     19 C19          0.2950    -1.1290     0.2650 ce         1 35I      -0.273200
     20 C20         -0.6490    -2.0620    -0.0680 cf         1 35I      -0.085200
     21 C21         -2.1180    -2.0420     0.1590 ca         1 35I      -0.051800
     22 C22         -2.9630    -3.0130    -0.4460 ca         1 35I       0.087100
     23 O23         -2.3370    -3.9600    -1.2570 os         1 35I      -0.347100
     24 C24         -3.0030    -5.0200    -1.9660 c3         1 35I       0.149900
     25 C25         -4.3750    -2.9670    -0.2040 ca         1 35I       0.119100
     26 O26         -5.2240    -3.9000    -0.7790 os         1 35I      -0.326100
     27 C27         -6.6480    -3.9100    -0.5700 c3         1 35I       0.144900
     28 C28         -4.9030    -1.9540     0.6300 ca         1 35I      -0.193000
     29 C29         -4.0640    -1.0000     1.2240 ca         1 35I      -0.065300
     30 C30         -4.6420     0.0890     2.1240 c3         1 35I       0.042200
     31 C31         -4.2710     1.4930     1.6450 ca         1 35I      -0.317300
     32 C32         -3.4170     2.3100     2.4110 ca         1 35I       0.174900
     33 N33         -3.0800     3.5510     2.0110 nb         1 35I      -0.277000
     34 C34         -3.6050     3.9550     0.8470 ca         1 35I       0.403900
     35 N35         -3.2740     5.2030     0.4430 nv         1 35I      -1.048900
     36 N36         -4.4220     3.2760     0.0370 nb         1 35I      -0.327000
     37 C37         -4.7470     2.0460     0.4460 ca         1 35I       0.422900
     38 N38         -5.5630     1.3640    -0.3910 nv         1 35I      -1.064900
     39 C39         -2.6830    -1.0520     0.9890 ca         1 35I      -0.113000
     40 H1           2.3260     2.0170     2.8440 h4         1 35I       0.042800
     41 H2           4.3640     1.9010     4.3320 ha         1 35I       0.119000
     42 H3           6.7120     1.1740     4.7210 ha         1 35I       0.119000
     43 H4           7.8830    -0.2350     3.0310 ha         1 35I       0.118000
     44 H5           6.7100    -0.9180     0.9460 ha         1 35I       0.121000
     45 H6           4.3900    -1.3340    -0.0500 h1         1 35I       0.099700
     46 H7           4.3720     1.6350    -0.8100 hc         1 35I       0.064200
     47 H8           5.6830     0.5090    -1.1030 hc         1 35I       0.064200
     48 H9           4.1630    -0.8580    -2.5990 hc         1 35I       0.088700
     49 H10          2.8780     0.3150    -2.3410 hc         1 35I       0.088700
     50 H11         -0.0110    -0.2120     0.7550 ha         1 35I       0.210000
     51 H12         -0.2810    -2.9600    -0.5680 ha         1 35I       0.209000
     52 H13         -3.5180    -5.6950    -1.2710 h1         1 35I       0.038367
     53 H14         -3.7280    -4.6170    -2.6850 h1         1 35I       0.038367
     54 H15         -2.2720    -5.6140    -2.5280 h1         1 35I       0.038367
     55 H16         -6.8860    -4.0400     0.4940 h1         1 35I       0.042367
     56 H17         -7.1010    -2.9760    -0.9240 h1         1 35I       0.042367
     57 H18         -7.1060    -4.7400    -1.1220 h1         1 35I       0.042367
     58 H19         -5.9680    -1.8980     0.8350 ha         1 35I       0.119000
     59 H20         -5.7340     0.0010     2.1870 hc         1 35I       0.053700
     60 H21         -4.2820    -0.0680     3.1490 hc         1 35I       0.053700
     61 H22         -2.9970     1.9690     3.3560 h4         1 35I       0.014100
     62 H23         -2.8490     5.8320     1.1190 hn         1 35I       0.485500
     63 H24         -3.8150     5.6290    -0.3050 hn         1 35I       0.485500
     64 H25         -5.6780     1.7320    -1.3310 hn         1 35I       0.490000
     65 H26         -5.5750     0.3530    -0.3030 hn         1 35I       0.490000
     66 H27         -2.0520    -0.3120     1.4710 ha         1 35I       0.131000
@<TRIPOS>BOND
     1     1     2 2   
     2     2     3 1   
     3     2    19 1   
     4     3     4 1   
     5     3    12 1   
     6     4     5 2   
     7     5     6 1   
     8     5    40 1   
     9     6     7 ar  
    10     6    11 ar  
    11     7     8 ar  
    12     7    41 1   
    13     8     9 ar  
    14     8    42 1   
    15     9    10 ar  
    16     9    43 1   
    17    10    11 ar  
    18    10    44 1   
    19    11    12 1   
    20    12    13 1   
    21    12    45 1   
    22    13    14 1   
    23    13    46 1   
    24    13    47 1   
    25    14    15 1   
    26    14    48 1   
    27    14    49 1   
    28    15    16 1   
    29    15    17 1   
    30    15    18 1   
    31    19    20 2   
    32    19    50 1   
    33    20    21 1   
    34    20    51 1   
    35    21    22 ar  
    36    21    39 ar  
    37    22    23 1   
    38    22    25 ar  
    39    23    24 1   
    40    24    52 1   
    41    24    53 1   
    42    24    54 1   
    43    25    26 1   
    44    25    28 ar  
    45    26    27 1   
    46    27    55 1   
    47    27    56 1   
    48    27    57 1   
    49    28    29 ar  
    50    28    58 1   
    51    29    30 1   
    52    29    39 ar  
    53    30    31 1   
    54    30    59 1   
    55    30    60 1   
    56    31    32 ar  
    57    31    37 ar  
    58    32    33 ar  
    59    32    61 1   
    60    33    34 ar  
    61    34    35 1   
    62    34    36 ar  
    63    35    62 1   
    64    35    63 1   
    65    36    37 ar  
    66    37    38 1   
    67    38    64 1   
    68    38    65 1   
    69    39    66 1   
@<TRIPOS>SUBSTRUCTURE
     1 35I         1 TEMP              0 ****  ****    0 ROOT
