@<TRIPOS>MOLECULE
35I
   66    69     1     0     0
SMALL
abcg2


@<TRIPOS>ATOM
      1 O01          1.9750    -2.1580    -0.8810 o          1 35I      -0.596100
      2 C02          1.5540    -1.2950    -0.1260 c          1 35I       0.629300
      3 N03          2.4220    -0.4050     0.4610 n          1 35I      -0.189800
      4 N04          1.9120     0.5500     1.2840 n2         1 35I      -0.434300
      5 C05          2.7100     1.1090     2.1090 ce         1 35I       0.399800
      6 C06          4.0970     0.7250     2.2890 ca         1 35I      -0.164900
      7 C07          4.8350     1.1060     3.4070 ca         1 35I      -0.077000
      8 C08          6.1250     0.6280     3.5730 ca         1 35I      -0.108000
      9 C09          6.6720    -0.2350     2.6290 ca         1 35I      -0.094000
     10 C10          5.9370    -0.6140     1.5120 ca         1 35I      -0.095000
     11 C11          4.6520    -0.1270     1.3370 ca         1 35I      -0.083300
     12 C12          3.8400    -0.3930     0.1010 c6         1 35I       0.145000
     13 C13          4.1490     0.6790    -0.9550 c3         1 35I      -0.089400
     14 C14          3.4110     0.4580    -2.2700 c3         1 35I      -0.147400
     15 C15          3.8160     1.4380    -3.3350 c3         1 35I       0.298000
     16 F16          3.5850     2.7120    -2.9770 f          1 35I      -0.119667
     17 F17          5.1220     1.3610    -3.6380 f          1 35I      -0.119667
     18 F18          3.1460     1.2350    -4.4800 f          1 35I      -0.119667
     19 C19          0.1240    -1.1540     0.2100 ce         1 35I      -0.273200
     20 C20         -0.7640    -2.0020    -0.3230 cf         1 35I      -0.085200
     21 C21         -2.2080    -1.9700    -0.1020 ca         1 35I      -0.051800
     22 C22         -2.9960    -2.9930    -0.6300 ca         1 35I       0.087100
     23 O23         -2.4370    -4.0010    -1.3470 os         1 35I      -0.347100
     24 C24         -2.1640    -5.1820    -0.6000 c3         1 35I       0.149900
     25 C25         -4.3900    -2.9770    -0.4520 ca         1 35I       0.119100
     26 O26         -5.0610    -3.9970    -1.0090 os         1 35I      -0.326100
     27 C27         -6.4680    -4.0330    -0.8690 c3         1 35I       0.144900
     28 C28         -4.9770    -1.9360     0.2530 ca         1 35I      -0.193000
     29 C29         -4.1960    -0.9080     0.7880 ca         1 35I      -0.065300
     30 C30         -4.8640     0.1990     1.5770 c3         1 35I       0.042200
     31 C31         -4.2110     1.5400     1.4440 ca         1 35I      -0.317300
     32 C32         -3.6070     2.1810     2.5000 ca         1 35I       0.174900
     33 N33         -3.0360     3.3810     2.4370 nb         1 35I      -0.277000
     34 C34         -3.0770     3.9680     1.2410 ca         1 35I       0.403900
     35 N35         -2.4770     5.1780     1.1240 nv         1 35I      -1.048900
     36 N36         -3.6230     3.4590     0.1370 nb         1 35I      -0.327000
     37 C37         -4.1860     2.2580     0.2260 ca         1 35I       0.422900
     38 N38         -4.7670     1.7700    -0.8880 nv         1 35I      -1.064900
     39 C39         -2.8290    -0.9290     0.5990 ca         1 35I      -0.113000
     40 H1           2.2710     1.8630     2.7530 h4         1 35I       0.042800
     41 H2           4.3940     1.7640     4.1460 ha         1 35I       0.119000
     42 H3           6.7050     0.9230     4.4370 ha         1 35I       0.119000
     43 H4           7.6780    -0.6110     2.7620 ha         1 35I       0.118000
     44 H5           6.3730    -1.2770     0.7740 ha         1 35I       0.121000
     45 H6           4.0840    -1.3760    -0.3000 h1         1 35I       0.099700
     46 H7           3.9160     1.6660    -0.5480 hc         1 35I       0.064200
     47 H8           5.2290     0.6530    -1.1170 hc         1 35I       0.064200
     48 H9           3.5980    -0.5490    -2.6500 hc         1 35I       0.088700
     49 H10          2.3330     0.5560    -2.1310 hc         1 35I       0.088700
     50 H11         -0.1700    -0.3580     0.8770 ha         1 35I       0.210000
     51 H12         -0.3960    -2.7810    -0.9780 ha         1 35I       0.209000
     52 H13         -1.4500    -4.9870     0.2040 h1         1 35I       0.038367
     53 H14         -3.0710    -5.6110    -0.1700 h1         1 35I       0.038367
     54 H15         -1.7280    -5.9010    -1.2910 h1         1 35I       0.038367
     55 H16         -6.7720    -4.0890     0.1790 h1         1 35I       0.042367
     56 H17         -6.9440    -3.1640    -1.3300 h1         1 35I       0.042367
     57 H18         -6.8050    -4.9300    -1.3820 h1         1 35I       0.042367
     58 H19         -6.0500    -1.9020     0.3960 ha         1 35I       0.119000
     59 H20         -5.9170     0.2590     1.2840 hc         1 35I       0.053700
     60 H21         -4.8720    -0.0810     2.6350 hc         1 35I       0.053700
     61 H22         -3.5850     1.6920     3.4710 h4         1 35I       0.014100
     62 H23         -2.2860     5.6820     1.9720 hn         1 35I       0.485500
     63 H24         -2.7130     5.7400     0.3240 hn         1 35I       0.485500
     64 H25         -4.5850     2.2390    -1.7600 hn         1 35I       0.490000
     65 H26         -4.9930     0.7920    -0.9560 hn         1 35I       0.490000
     66 H27         -2.2340    -0.1170     0.9980 ha         1 35I       0.131000
@<TRIPOS>BOND
     1     1     2 2   
     2     2     3 1   
     3     2    19 1   
     4     3     4 1   
     5     3    12 1   
     6     4     5 2   
     7     5     6 1   
     8     5    40 1   
     9     6     7 ar  
    10     6    11 ar  
    11     7     8 ar  
    12     7    41 1   
    13     8     9 ar  
    14     8    42 1   
    15     9    10 ar  
    16     9    43 1   
    17    10    11 ar  
    18    10    44 1   
    19    11    12 1   
    20    12    13 1   
    21    12    45 1   
    22    13    14 1   
    23    13    46 1   
    24    13    47 1   
    25    14    15 1   
    26    14    48 1   
    27    14    49 1   
    28    15    16 1   
    29    15    17 1   
    30    15    18 1   
    31    19    20 2   
    32    19    50 1   
    33    20    21 1   
    34    20    51 1   
    35    21    22 ar  
    36    21    39 ar  
    37    22    23 1   
    38    22    25 ar  
    39    23    24 1   
    40    24    52 1   
    41    24    53 1   
    42    24    54 1   
    43    25    26 1   
    44    25    28 ar  
    45    26    27 1   
    46    27    55 1   
    47    27    56 1   
    48    27    57 1   
    49    28    29 ar  
    50    28    58 1   
    51    29    30 1   
    52    29    39 ar  
    53    30    31 1   
    54    30    59 1   
    55    30    60 1   
    56    31    32 ar  
    57    31    37 ar  
    58    32    33 ar  
    59    32    61 1   
    60    33    34 ar  
    61    34    35 1   
    62    34    36 ar  
    63    35    62 1   
    64    35    63 1   
    65    36    37 ar  
    66    37    38 1   
    67    38    64 1   
    68    38    65 1   
    69    39    66 1   
@<TRIPOS>SUBSTRUCTURE
     1 35I         1 TEMP              0 ****  ****    0 ROOT
