@<TRIPOS>MOLECULE
35J
   18    18     1     0     0
SMALL
abcg2


@<TRIPOS>ATOM
      1 CAJ         -2.4990    -0.5470    -0.7930 cs         1 35J       0.364200
      2 SAB         -3.4170    -1.0380     0.4920 s          1 35J      -0.560400
      3 NAI         -1.3300     0.0590    -0.7560 ns         1 35J      -0.396900
      4 CAG         -0.6040     0.4210     0.4440 c3         1 35J       0.126300
      5 CAK          0.8690     0.1970     0.2680 ca         1 35J      -0.174300
      6 CAE          1.3850    -1.0660    -0.0040 ca         1 35J      -0.057000
      7 CAC          2.7530    -1.2170    -0.1470 ca         1 35J      -0.164000
      8 CAD          3.5610    -0.0960    -0.0110 ca         1 35J       0.345900
      9 NAH          3.0850     1.1150     0.2460 nb         1 35J      -0.662000
     10 CAF          1.7700     1.2490     0.3780 ca         1 35J       0.349900
     11 H1          -2.8420    -0.7140    -1.8120 h5         1 35J       0.043200
     12 H3          -0.8040     1.4650     0.6970 h1         1 35J       0.084200
     13 H4          -0.9930    -0.1870     1.2620 h1         1 35J       0.084200
     14 H5           0.7250    -1.9200    -0.0990 ha         1 35J       0.127000
     15 H6           3.1910    -2.1830    -0.3570 ha         1 35J       0.129000
     16 H7           4.6370    -0.1830    -0.1170 h4         1 35J       0.024100
     17 H8           1.4060     2.2500     0.5840 h4         1 35J       0.021100
     18 H2          -0.9180     0.3240    -1.6390 hn         1 35J       0.315500
@<TRIPOS>BOND
     1     1     2 2   
     2     1     3 1   
     3     1    11 1   
     4     3     4 1   
     5     3    18 1   
     6     4     5 1   
     7     4    12 1   
     8     4    13 1   
     9     5     6 ar  
    10     5    10 ar  
    11     6     7 ar  
    12     6    14 1   
    13     7     8 ar  
    14     7    15 1   
    15     8     9 ar  
    16     8    16 1   
    17     9    10 ar  
    18    10    17 1   
@<TRIPOS>SUBSTRUCTURE
     1 35J         1 TEMP              0 ****  ****    0 ROOT
