@<TRIPOS>MOLECULE
35J
   18    18     1     0     0
SMALL
No Charge or Current Charge


@<TRIPOS>ATOM
      1 CAJ         -2.7000    -0.1550    -0.8780 cs         1 35J       0.364200
      2 SAB         -3.7750     0.0520     0.3920 s          1 35J      -0.560400
      3 NAI         -1.3380    -0.1370    -0.7310 ns         1 35J      -0.396900
      4 CAG         -0.6140     0.0570     0.5230 c3         1 35J       0.126300
      5 CAK          0.8890     0.0310     0.3000 ca         1 35J      -0.174300
      6 CAE          1.5630    -1.1840     0.0850 ca         1 35J      -0.057000
      7 CAC          2.9530    -1.1470    -0.1140 ca         1 35J      -0.164000
      8 CAD          3.6160     0.0910    -0.0900 ca         1 35J       0.345900
      9 NAH          2.9750     1.2650     0.1180 nb         1 35J      -0.662000
     10 CAF          1.6350     1.2270     0.3080 ca         1 35J       0.349900
     11 H1          -3.0120    -0.3180    -1.9120 h5         1 35J       0.043200
     12 H3          -0.9140     1.0180     0.9640 h1         1 35J       0.084200
     13 H4          -0.8960    -0.7380     1.2260 h1         1 35J       0.084200
     14 H5           1.0260    -2.1310     0.0710 ha         1 35J       0.127000
     15 H6           3.5150    -2.0610    -0.2840 ha         1 35J       0.129000
     16 H7           4.6940     0.1460    -0.2410 h4         1 35J       0.024100
     17 H8           1.1460     2.1870     0.4720 h4         1 35J       0.021100
     18 H2          -0.7870    -0.2750    -1.5730 hn         1 35J       0.315500
@<TRIPOS>BOND
     1     1     2 2   
     2     1     3 1   
     3     1    11 1   
     4     3     4 1   
     5     3    18 1   
     6     4     5 1   
     7     4    12 1   
     8     4    13 1   
     9     5     6 ar  
    10     5    10 ar  
    11     6     7 ar  
    12     6    14 1   
    13     7     8 ar  
    14     7    15 1   
    15     8     9 ar  
    16     8    16 1   
    17     9    10 ar  
    18    10    17 1   
@<TRIPOS>SUBSTRUCTURE
     1 35J         1 TEMP              0 ****  ****    0 ROOT
