@<TRIPOS>MOLECULE
35M
   39    41     1     0     0
SMALL
bcc


@<TRIPOS>ATOM
      1 O3           3.3450    -2.2500    -0.1280 o          1 35M      -0.602100
      2 C6           3.0760    -1.0590    -0.1710 c          1 35M       0.688700
      3 C5           4.1360    -0.0190    -0.0580 ca         1 35M      -0.188600
      4 C4           5.3440    -0.3720     0.5400 ca         1 35M      -0.048500
      5 C3           6.3720     0.5440     0.6740 ca         1 35M      -0.208000
      6 C2           6.2150     1.8420     0.1880 ca         1 35M       0.156100
      7 O4           7.1760     2.7730     0.2810 oh         1 35M      -0.493100
      8 C1           5.0190     2.2030    -0.4300 ca         1 35M      -0.208000
      9 C            3.9960     1.2810    -0.5470 ca         1 35M      -0.048500
     10 N            1.8120    -0.5850    -0.3100 ns         1 35M      -0.460100
     11 C7           0.6250    -1.3230    -0.4250 ca         1 35M       0.013600
     12 C12         -0.5570    -0.6940    -0.0440 ca         1 35M      -0.130000
     13 C11         -1.7960    -1.3160    -0.1390 cp         1 35M      -0.111500
     14 C10         -1.8540    -2.6220    -0.6390 ca         1 35M       0.145100
     15 O2          -3.0570    -3.2140    -0.7650 oh         1 35M      -0.462100
     16 C9          -0.6760    -3.2520    -1.0250 ca         1 35M      -0.224000
     17 C8           0.5530    -2.6200    -0.9240 ca         1 35M      -0.105000
     18 C13         -3.0100    -0.5780     0.2780 cp         1 35M       0.413800
     19 N1          -3.8480    -1.1880     1.1150 nb         1 35M      -0.679000
     20 C17         -4.9190    -0.5180     1.5170 ca         1 35M       0.357200
     21 C16         -5.2130     0.7770     1.1200 ca         1 35M      -0.212300
     22 C15         -4.3490     1.4220     0.2440 ca         1 35M      -0.113600
     23 C14         -3.2310     0.7180    -0.1820 ca         1 35M      -0.203300
     24 C18         -4.6170     2.8470    -0.2380 c          1 35M       0.926200
     25 O1          -3.8120     3.3070    -1.0670 o          1 35M      -0.818800
     26 O           -5.6140     3.4100     0.2470 o          1 35M      -0.818800
     27 H            1.6780     0.4040    -0.1700 hn         1 35M       0.320500
     28 H4           5.4860    -1.3760     0.9170 ha         1 35M       0.147000
     29 HA           3.0930     1.5950    -1.0550 ha         1 35M       0.147000
     30 H3           7.2960     0.2470     1.1550 ha         1 35M       0.140500
     31 HB           7.9550     2.4180     0.7260 ho         1 35M       0.425000
     32 H1           4.8980     3.2030    -0.8250 ha         1 35M       0.140500
     33 H12         -0.5160     0.3150     0.3550 ha         1 35M       0.142000
     34 H8           1.4370    -3.1470    -1.2460 ha         1 35M       0.148000
     35 H9          -0.7140    -4.2580    -1.4280 ha         1 35M       0.121000
     36 H14         -2.5370     1.1730    -0.8760 ha         1 35M       0.152000
     37 H17         -5.5820    -1.0400     2.2000 h4         1 35M      -0.008900
     38 H16         -6.1010     1.2720     1.4890 ha         1 35M       0.152000
     39 H2          -2.9560    -4.0850    -1.1660 ho         1 35M       0.407000
@<TRIPOS>BOND
     1     1     2 2   
     2     2     3 1   
     3     2    10 1   
     4     3     4 ar  
     5     3     9 ar  
     6     4     5 ar  
     7     4    28 1   
     8     5     6 ar  
     9     5    30 1   
    10     6     7 1   
    11     6     8 ar  
    12     7    31 1   
    13     8     9 ar  
    14     8    32 1   
    15     9    29 1   
    16    10    11 1   
    17    10    27 1   
    18    11    12 ar  
    19    11    17 ar  
    20    12    13 ar  
    21    12    33 1   
    22    13    14 ar  
    23    13    18 1   
    24    14    15 1   
    25    14    16 ar  
    26    15    39 1   
    27    16    17 ar  
    28    16    35 1   
    29    17    34 1   
    30    18    19 ar  
    31    18    23 ar  
    32    19    20 ar  
    33    20    21 ar  
    34    20    37 1   
    35    21    22 ar  
    36    21    38 1   
    37    22    23 ar  
    38    22    24 1   
    39    23    36 1   
    40    24    25 1   
    41    24    26 1   
@<TRIPOS>SUBSTRUCTURE
     1 35M         1 TEMP              0 ****  ****    0 ROOT
