@<TRIPOS>MOLECULE
35M
   39    41     1     0     0
SMALL
No Charge or Current Charge


@<TRIPOS>ATOM
      1 O3           3.5240    -2.2630    -0.6320 o          1 35M      -0.602100
      2 C6           3.1830    -1.1280    -0.3140 c          1 35M       0.621700
      3 C5           4.2190    -0.0420    -0.0780 ca         1 35M      -0.188600
      4 C4           5.5920    -0.3480    -0.2290 ca         1 35M      -0.030500
      5 C3           6.5750     0.6340    -0.0180 ca         1 35M      -0.190000
      6 C2           6.2030     1.9340     0.3460 ca         1 35M       0.156100
      7 O4           7.1500     2.8900     0.5520 oh         1 35M      -0.532100
      8 C1           4.8490     2.2550     0.4990 ca         1 35M      -0.190000
      9 C            3.8580     1.2800     0.2900 ca         1 35M      -0.030500
     10 N            1.8550    -0.7460    -0.1450 ns         1 35M      -0.134000
     11 C7           0.6220    -1.4500    -0.2730 ca         1 35M      -0.079000
     12 C12         -0.5610    -0.7440     0.0110 ca         1 35M      -0.112000
     13 C11         -1.8400    -1.3520    -0.0780 cp         1 35M      -0.111500
     14 C10         -1.9040    -2.7100    -0.4900 ca         1 35M       0.145100
     15 O2          -3.0970    -3.3520    -0.6570 oh         1 35M      -0.501100
     16 C9          -0.7270    -3.4200    -0.7770 ca         1 35M      -0.206000
     17 C8           0.5290    -2.8010    -0.6680 ca         1 35M      -0.087000
     18 C13         -3.0600    -0.5410     0.2390 cp         1 35M       0.348500
     19 N1          -3.9230    -1.0310     1.1610 nb         1 35M      -0.679000
     20 C17         -5.0060    -0.2960     1.4900 ca         1 35M       0.291900
     21 C16         -5.2770     0.9630     0.9300 ca         1 35M      -0.129000
     22 C15         -4.3890     1.5110    -0.0220 ca         1 35M      -0.113600
     23 C14         -3.2590     0.7290    -0.3560 ca         1 35M      -0.120000
     24 C18         -4.6320     2.8710    -0.6530 c          1 35M       0.715600
     25 O1          -3.8240     3.2880    -1.4710 o          1 35M      -0.713500
     26 O           -5.6280     3.4980    -0.3200 o          1 35M      -0.713500
     27 H            1.7380     0.2210     0.1230 hn         1 35M       0.154000
     28 H4           5.9040    -1.3530    -0.5110 ha         1 35M       0.129000
     29 HA           2.8180     1.5710     0.4190 ha         1 35M       0.129000
     30 H3           7.6240     0.3740    -0.1390 ha         1 35M       0.122500
     31 HB           8.0320     2.4880     0.4010 ho         1 35M       0.464000
     32 H1           4.5620     3.2650     0.7810 ha         1 35M       0.122500
     33 H12         -0.4950     0.2970     0.3220 ha         1 35M       0.124000
     34 H8           1.4110    -3.3880    -0.9030 ha         1 35M       0.130000
     35 H9          -0.7780    -4.4590    -1.0960 ha         1 35M       0.103000
     36 H14         -2.5340     1.0900    -1.0800 ha         1 35M       0.134000
     37 H17         -5.6780    -0.7290     2.2300 h4         1 35M      -0.008900
     38 H16         -6.1680     1.5020     1.2410 ha         1 35M       0.134000
     39 H2          -2.9130    -4.2730    -0.9350 ho         1 35M       0.446000
@<TRIPOS>BOND
     1     1     2 2   
     2     2     3 1   
     3     2    10 1   
     4     3     4 ar  
     5     3     9 ar  
     6     4     5 ar  
     7     4    28 1   
     8     5     6 ar  
     9     5    30 1   
    10     6     7 1   
    11     6     8 ar  
    12     7    31 1   
    13     8     9 ar  
    14     8    32 1   
    15     9    29 1   
    16    10    11 1   
    17    10    27 1   
    18    11    12 ar  
    19    11    17 ar  
    20    12    13 ar  
    21    12    33 1   
    22    13    14 ar  
    23    13    18 1   
    24    14    15 1   
    25    14    16 ar  
    26    15    39 1   
    27    16    17 ar  
    28    16    35 1   
    29    17    34 1   
    30    18    19 ar  
    31    18    23 ar  
    32    19    20 ar  
    33    20    21 ar  
    34    20    37 1   
    35    21    22 ar  
    36    21    38 1   
    37    22    23 ar  
    38    22    24 1   
    39    23    36 1   
    40    24    25 1   
    41    24    26 1   
@<TRIPOS>SUBSTRUCTURE
     1 35M         1 TEMP              0 ****  ****    0 ROOT
