@<TRIPOS>MOLECULE
35O
   53    56     1     0     0
SMALL
bcc


@<TRIPOS>ATOM
      1 C4           6.3400    -1.7040     1.3700 c5         1 35O      -0.086900
      2 C1           7.4590    -2.1980     0.4570 c5         1 35O      -0.078900
      3 C2           6.7270    -3.1480    -0.4870 c5         1 35O      -0.078900
      4 C3           5.4330    -2.3990    -0.8130 c5         1 35O      -0.086900
      5 C5           5.1030    -1.5810     0.4570 c5         1 35O       0.070000
      6 N8           4.7870    -0.1970     0.1450 na         1 35O       0.082400
      7 C11          3.6020     0.4160     0.1410 cc         1 35O       0.169300
      8 N13          2.3750    -0.0650     0.4690 na         1 35O      -0.734600
      9 N9           5.7570     0.6470    -0.2700 nc         1 35O      -0.523800
     10 C10          5.1720     1.7940    -0.5180 cd         1 35O       0.391200
     11 C12          3.7860     1.7190    -0.2750 cd         1 35O      -0.399900
     12 C16          2.6470     2.6050    -0.3640 c          1 35O       0.775100
     13 O17          2.7270     3.7750    -0.7200 o          1 35O      -0.557100
     14 N15          1.4380     2.0520    -0.0180 nc         1 35O      -0.799100
     15 C14          1.3220     0.8070     0.3590 cd         1 35O       0.912100
     16 N18          0.1210     0.3030     0.6590 nu         1 35O      -0.852200
     17 C19         -1.0840     1.0930     0.6350 c3         1 35O       0.173500
     18 C20         -1.2590     1.9250     1.9080 c3         1 35O      -0.113100
     19 C21         -2.2620     0.1370     0.4720 c          1 35O       0.663100
     20 O22         -2.1870    -1.0320     0.8090 o          1 35O      -0.602100
     21 N23         -3.3660     0.7260    -0.0290 ns         1 35O      -0.457100
     22 C24         -4.6560     0.1930    -0.1850 ca         1 35O       0.024600
     23 C29         -5.6940     1.1000    -0.4120 ca         1 35O      -0.121500
     24 C28         -6.9920     0.6690    -0.5920 ca         1 35O      -0.165000
     25 C27         -7.2970    -0.6930    -0.5430 ca         1 35O       0.123100
     26 O30         -8.5910    -1.0260    -0.7200 os         1 35O      -0.316900
     27 C31         -8.9440    -2.3930    -0.6760 c3         1 35O       0.124700
     28 C26         -6.2680    -1.6000    -0.3230 ca         1 35O      -0.165000
     29 C25         -4.9580    -1.1630    -0.1470 ca         1 35O      -0.121500
     30 H1           6.1330    -2.4570     2.1320 hc         1 35O       0.058200
     31 H2           6.5690    -0.7730     1.8870 hc         1 35O       0.058200
     32 H3           7.8830    -1.3630    -0.1050 hc         1 35O       0.052200
     33 H4           8.2690    -2.6790     1.0070 hc         1 35O       0.052200
     34 H5           7.2970    -3.3970    -1.3830 hc         1 35O       0.052200
     35 H6           6.5040    -4.0850     0.0300 hc         1 35O       0.052200
     36 H7           5.6000    -1.7160    -1.6480 hc         1 35O       0.058200
     37 H8           4.6140    -3.0600    -1.0940 hc         1 35O       0.058200
     38 H9           4.2270    -1.9840     0.9660 h1         1 35O       0.045700
     39 H10          2.2260    -1.0250     0.7430 hn         1 35O       0.451800
     40 H11          5.7480     2.6400    -0.8600 h4         1 35O       0.054100
     41 H12          0.0430    -0.6420     1.0070 hn         1 35O       0.459800
     42 H13         -1.0350     1.7640    -0.2250 h1         1 35O       0.101700
     43 H14         -0.4100     2.5980     2.0250 hc         1 35O       0.056033
     44 H15         -2.1620     2.5330     1.8610 hc         1 35O       0.056033
     45 H16         -1.3200     1.2840     2.7870 hc         1 35O       0.056033
     46 H17         -3.2800     1.7020    -0.2710 hn         1 35O       0.323500
     47 H18         -5.4860     2.1630    -0.4470 ha         1 35O       0.146500
     48 H19         -7.7810     1.3910    -0.7640 ha         1 35O       0.143000
     49 H20        -10.0220    -2.4400    -0.8120 h1         1 35O       0.041033
     50 H21         -8.4650    -2.9660    -1.4740 h1         1 35O       0.041033
     51 H22         -8.6910    -2.8500     0.2850 h1         1 35O       0.041033
     52 H23         -6.4520    -2.6650    -0.2870 ha         1 35O       0.143000
     53 H24         -4.1890    -1.9010     0.0110 ha         1 35O       0.146500
@<TRIPOS>BOND
     1     1     2 1   
     2     1     5 1   
     3     1    30 1   
     4     1    31 1   
     5     2     3 1   
     6     2    32 1   
     7     2    33 1   
     8     3     4 1   
     9     3    34 1   
    10     3    35 1   
    11     4     5 1   
    12     4    36 1   
    13     4    37 1   
    14     5     6 1   
    15     5    38 1   
    16     6     7 1   
    17     6     9 1   
    18     7     8 1   
    19     7    11 2   
    20     8    15 1   
    21     8    39 1   
    22     9    10 2   
    23    10    11 1   
    24    10    40 1   
    25    11    12 1   
    26    12    13 2   
    27    12    14 1   
    28    14    15 2   
    29    15    16 1   
    30    16    17 1   
    31    16    41 1   
    32    17    18 1   
    33    17    19 1   
    34    17    42 1   
    35    18    43 1   
    36    18    44 1   
    37    18    45 1   
    38    19    20 2   
    39    19    21 1   
    40    21    22 1   
    41    21    46 1   
    42    22    23 ar  
    43    22    29 ar  
    44    23    24 ar  
    45    23    47 1   
    46    24    25 ar  
    47    24    48 1   
    48    25    26 1   
    49    25    28 ar  
    50    26    27 1   
    51    27    49 1   
    52    27    50 1   
    53    27    51 1   
    54    28    29 ar  
    55    28    52 1   
    56    29    53 1   
@<TRIPOS>SUBSTRUCTURE
     1 35O         1 TEMP              0 ****  ****    0 ROOT
