@<TRIPOS>MOLECULE
35O
   53    56     1     0     0
SMALL
No Charge or Current Charge


@<TRIPOS>ATOM
      1 C4           6.2770    -0.4790     0.0380 c5         1 35O      -0.086900
      2 C1           7.2080    -1.5870     0.6140 c5         1 35O      -0.078900
      3 C2           6.6360    -2.9290     0.0500 c5         1 35O      -0.078900
      4 C3           5.4930    -2.4910    -0.9080 c5         1 35O      -0.086900
      5 C5           4.9420    -1.2360    -0.1820 c5         1 35O       0.099300
      6 N8           3.9090    -0.4810    -0.9080 na         1 35O       0.103800
      7 C11          2.6910    -0.0310    -0.4350 cc         1 35O       0.257000
      8 N13          2.1450    -0.0810     0.8240 na         1 35O      -0.928200
      9 N9           4.0590    -0.1060    -2.2440 nc         1 35O      -0.523800
     10 C10          2.9320     0.5700    -2.5000 cd         1 35O       0.325900
     11 C12          2.0740     0.6450    -1.3850 cd         1 35O      -0.334600
     12 C16          0.8030     1.2760    -1.1500 c          1 35O       0.775100
     13 O17          0.2000     1.8980    -2.0070 o          1 35O      -0.557100
     14 N15          0.3050     1.1350     0.1140 nc         1 35O      -0.799100
     15 C14          0.9390     0.4870     1.0490 cd         1 35O       0.912100
     16 N18          0.4150     0.3790     2.2640 nu         1 35O      -0.907400
     17 C19         -0.9550     0.8230     2.6550 c3         1 35O       0.173500
     18 C20         -1.0810     0.7830     4.1920 c3         1 35O      -0.113100
     19 C21         -2.0900    -0.0040     1.9510 c          1 35O       0.596100
     20 O22         -2.2760    -1.1960     2.1920 o          1 35O      -0.602100
     21 N23         -2.8460     0.7290     1.0390 ns         1 35O      -0.131000
     22 C24         -3.9680     0.3880     0.2310 ca         1 35O      -0.068000
     23 C29         -4.3690     1.3130    -0.7510 ca         1 35O      -0.103500
     24 C28         -5.4710     1.0430    -1.5800 ca         1 35O      -0.147000
     25 C27         -6.1920    -0.1520    -1.4390 ca         1 35O       0.123100
     26 O30         -7.2650    -0.3640    -2.2810 os         1 35O      -0.340100
     27 C31         -8.0680    -1.5560    -2.2160 c3         1 35O       0.147900
     28 C26         -5.8010    -1.0820    -0.4520 ca         1 35O      -0.147000
     29 C25         -4.6970    -0.8120     0.3780 ca         1 35O      -0.103500
     30 H1           6.1660     0.3690     0.7230 hc         1 35O       0.058200
     31 H2           6.6720    -0.0810    -0.9050 hc         1 35O       0.058200
     32 H3           8.2510    -1.4270     0.3180 hc         1 35O       0.052200
     33 H4           7.1880    -1.5900     1.7110 hc         1 35O       0.052200
     34 H5           7.3990    -3.5200    -0.4690 hc         1 35O       0.052200
     35 H6           6.2480    -3.5550     0.8620 hc         1 35O       0.052200
     36 H7           5.8770    -2.2520    -1.9070 hc         1 35O       0.058200
     37 H8           4.7320    -3.2710    -1.0300 hc         1 35O       0.058200
     38 H9           4.5270    -1.5350     0.7900 h1         1 35O       0.045700
     39 H10          2.6270    -0.5190     1.5930 hn         1 35O       0.507000
     40 H11          2.7820     0.9980    -3.4840 h4         1 35O       0.054100
     41 H12          0.8380    -0.3680     2.8020 hn         1 35O       0.515000
     42 H13         -1.0930     1.8700     2.3490 h1         1 35O       0.101700
     43 H14         -0.3190     1.4170     4.6600 hc         1 35O       0.056033
     44 H15         -2.0660     1.1500     4.5050 hc         1 35O       0.056033
     45 H16         -0.9620    -0.2400     4.5720 hc         1 35O       0.056033
     46 H17         -2.5330     1.6830     0.9180 hn         1 35O       0.157000
     47 H18         -3.8230     2.2460    -0.8780 ha         1 35O       0.128500
     48 H19         -5.7690     1.7640    -2.3380 ha         1 35O       0.125000
     49 H20         -8.8630    -1.5200    -2.9710 h1         1 35O       0.041033
     50 H21         -7.4580    -2.4480    -2.4080 h1         1 35O       0.041033
     51 H22         -8.5390    -1.6560    -1.2300 h1         1 35O       0.041033
     52 H23         -6.3400    -2.0150    -0.3120 ha         1 35O       0.125000
     53 H24         -4.4330    -1.5450     1.1350 ha         1 35O       0.128500
@<TRIPOS>BOND
     1     1     2 1   
     2     1     5 1   
     3     1    30 1   
     4     1    31 1   
     5     2     3 1   
     6     2    32 1   
     7     2    33 1   
     8     3     4 1   
     9     3    34 1   
    10     3    35 1   
    11     4     5 1   
    12     4    36 1   
    13     4    37 1   
    14     5     6 1   
    15     5    38 1   
    16     6     7 1   
    17     6     9 1   
    18     7     8 1   
    19     7    11 2   
    20     8    15 1   
    21     8    39 1   
    22     9    10 2   
    23    10    11 1   
    24    10    40 1   
    25    11    12 1   
    26    12    13 2   
    27    12    14 1   
    28    14    15 2   
    29    15    16 1   
    30    16    17 1   
    31    16    41 1   
    32    17    18 1   
    33    17    19 1   
    34    17    42 1   
    35    18    43 1   
    36    18    44 1   
    37    18    45 1   
    38    19    20 2   
    39    19    21 1   
    40    21    22 1   
    41    21    46 1   
    42    22    23 ar  
    43    22    29 ar  
    44    23    24 ar  
    45    23    47 1   
    46    24    25 ar  
    47    24    48 1   
    48    25    26 1   
    49    25    28 ar  
    50    26    27 1   
    51    27    49 1   
    52    27    50 1   
    53    27    51 1   
    54    28    29 ar  
    55    28    52 1   
    56    29    53 1   
@<TRIPOS>SUBSTRUCTURE
     1 35O         1 TEMP              0 ****  ****    0 ROOT
