@<TRIPOS>MOLECULE
35P
   43    44     1     0     0
SMALL
abcg2


@<TRIPOS>ATOM
      1 C24          6.3080     0.6260    -0.3900 ca         1 35P      -0.170000
      2 C23          7.5610     0.0740    -0.1960 ca         1 35P      -0.078000
      3 C22          7.6960    -1.2160     0.3090 ca         1 35P      -0.156000
      4 C21          6.5570    -1.9410     0.6190 ca         1 35P      -0.078000
      5 C20          5.2890    -1.4000     0.4290 ca         1 35P      -0.170000
      6 C19          5.1630    -0.1100    -0.0790 ca         1 35P       0.148100
      7 O1           3.9840     0.5110    -0.3010 os         1 35P      -0.310100
      8 C2           2.8010    -0.2010    -0.0730 c3         1 35P       0.071600
      9 C3           1.6420     0.6870    -0.4920 c          1 35P       0.610100
     10 O18          1.7900     1.6950    -1.1540 o          1 35P      -0.578100
     11 N4           0.4420     0.2130    -0.1060 ns         1 35P      -0.484900
     12 C5          -0.7820     0.9170    -0.3640 c3         1 35P      -0.015300
     13 C6          -1.0100     2.0260     0.6470 c          1 35P       0.575900
     14 O17         -0.1830     2.3950     1.4360 o          1 35P      -0.521100
     15 C8          -1.9620    -0.0520    -0.3940 c5         1 35P       0.369500
     16 N7          -3.1140     0.4800    -1.0590 n7         1 35P      -0.810400
     17 S11         -2.4860    -0.4960     1.3420 ss         1 35P      -0.627000
     18 C10         -4.2700    -0.2270     0.9800 c5         1 35P       0.136000
     19 C12         -5.0870    -1.3550     1.5970 c3         1 35P      -0.071600
     20 C15         -4.7170     1.1080     1.5710 c3         1 35P      -0.071600
     21 C9          -4.3270    -0.1630    -0.5800 c5         1 35P       0.028500
     22 C13         -4.5560    -1.5460    -1.2270 c          1 35P       0.736000
     23 O14         -3.5540    -2.2510    -1.4540 o          1 35P      -0.713500
     24 O16         -5.7440    -1.8430    -1.4540 o          1 35P      -0.713500
     25 H1           6.2040     1.6290    -0.7860 ha         1 35P       0.124500
     26 H2           8.4400     0.6550    -0.4420 ha         1 35P       0.107500
     27 H3           8.6770    -1.6460     0.4610 ha         1 35P       0.108000
     28 H4           6.6440    -2.9450     1.0150 ha         1 35P       0.107500
     29 H5           4.4220    -1.9940     0.6850 ha         1 35P       0.124500
     30 H6           2.7630    -1.1240    -0.6650 h1         1 35P       0.052200
     31 H7           2.6930    -0.4850     0.9810 h1         1 35P       0.052200
     32 H8           0.4140    -0.5660     0.5350 hn         1 35P       0.326500
     33 H9          -0.7180     1.3890    -1.3530 h1         1 35P       0.105700
     34 H10         -1.9950     2.5190     0.5830 h4         1 35P      -0.011800
     35 H11         -1.6540    -0.9750    -0.8770 h2         1 35P       0.140700
     36 H12         -3.1910     1.4800    -0.9170 hn         1 35P       0.381000
     37 H14         -5.0170    -1.3270     2.6850 hc         1 35P       0.035867
     38 H15         -6.1400    -1.2480     1.3310 hc         1 35P       0.035867
     39 H16         -4.7480    -2.3350     1.2660 hc         1 35P       0.035867
     40 H17         -4.2010     1.9550     1.1190 hc         1 35P       0.035867
     41 H18         -5.7880     1.2470     1.4070 hc         1 35P       0.035867
     42 H19         -4.5360     1.1470     2.6460 hc         1 35P       0.035867
     43 H20         -5.1690     0.4770    -0.8540 h1         1 35P       0.061700
@<TRIPOS>BOND
     1     1     2 ar  
     2     1     6 ar  
     3     1    25 1   
     4     2     3 ar  
     5     2    26 1   
     6     3     4 ar  
     7     3    27 1   
     8     4     5 ar  
     9     4    28 1   
    10     5     6 ar  
    11     5    29 1   
    12     6     7 1   
    13     7     8 1   
    14     8     9 1   
    15     8    30 1   
    16     8    31 1   
    17     9    10 2   
    18     9    11 1   
    19    11    12 1   
    20    11    32 1   
    21    12    13 1   
    22    12    15 1   
    23    12    33 1   
    24    13    14 2   
    25    13    34 1   
    26    15    16 1   
    27    15    17 1   
    28    15    35 1   
    29    16    21 1   
    30    16    36 1   
    31    17    18 1   
    32    18    19 1   
    33    18    20 1   
    34    18    21 1   
    35    19    37 1   
    36    19    38 1   
    37    19    39 1   
    38    20    40 1   
    39    20    41 1   
    40    20    42 1   
    41    21    22 1   
    42    21    43 1   
    43    22    23 1   
    44    22    24 1   
@<TRIPOS>SUBSTRUCTURE
     1 35P         1 TEMP              0 ****  ****    0 ROOT
