@<TRIPOS>MOLECULE
35P
   43    44     1     0     0
SMALL
No Charge or Current Charge


@<TRIPOS>ATOM
      1 C24          5.3350    -1.7420    -1.0430 ca         1 35P      -0.170000
      2 C23          6.6060    -2.2350    -0.6990 ca         1 35P      -0.078000
      3 C22          7.1950    -1.8600     0.5200 ca         1 35P      -0.156000
      4 C21          6.5150    -0.9950     1.3940 ca         1 35P      -0.078000
      5 C20          5.2440    -0.5020     1.0500 ca         1 35P      -0.170000
      6 C19          4.6480    -0.8760    -0.1750 ca         1 35P       0.148100
      7 O1           3.4050    -0.4250    -0.5660 os         1 35P      -0.310100
      8 C2           2.6140     0.4690     0.2530 c3         1 35P       0.071600
      9 C3           1.2610     0.8270    -0.4040 c          1 35P       0.610100
     10 O18          0.8970     0.4020    -1.4940 o          1 35P      -0.578100
     11 N4           0.4700     1.6840     0.3350 ns         1 35P      -0.484900
     12 C5          -0.8960     2.1400    -0.0520 c3         1 35P      -0.015300
     13 C6          -1.3780     3.2550     0.9000 c          1 35P       0.575900
     14 O17         -0.7270     3.6700     1.8570 o          1 35P      -0.521100
     15 C8          -1.9370     0.9940    -0.1790 c5         1 35P       0.369500
     16 N7          -3.2950     1.4410    -0.5190 n7         1 35P      -0.810400
     17 S11         -2.3150     0.2210     1.4460 ss         1 35P      -0.627000
     18 C10         -3.7750    -0.6660     0.7090 c5         1 35P       0.136000
     19 C12         -3.3530    -2.1410     0.4640 c3         1 35P      -0.071600
     20 C15         -4.9140    -0.6470     1.7580 c3         1 35P      -0.071600
     21 C9          -4.1470     0.1850    -0.5730 c5         1 35P       0.028500
     22 C13         -4.0890    -0.6940    -1.8960 c          1 35P       0.736000
     23 O14         -3.0570    -0.7540    -2.5540 o          1 35P      -0.713500
     24 O16         -5.1250    -1.2090    -2.2950 o          1 35P      -0.713500
     25 H1           4.8790    -2.0320    -1.9860 ha         1 35P       0.124500
     26 H2           7.1320    -2.9050    -1.3750 ha         1 35P       0.107500
     27 H3           8.1780    -2.2410     0.7880 ha         1 35P       0.108000
     28 H4           6.9740    -0.7060     2.3380 ha         1 35P       0.107500
     29 H5           4.7400     0.1660     1.7430 ha         1 35P       0.124500
     30 H6           2.3970     0.0100     1.2250 h1         1 35P       0.052200
     31 H7           3.1530     1.4080     0.4290 h1         1 35P       0.052200
     32 H8           0.8400     1.9900     1.2300 hn         1 35P       0.326500
     33 H9          -0.8260     2.6090    -1.0420 h1         1 35P       0.105700
     34 H10         -2.3710     3.6970     0.6610 h4         1 35P      -0.011800
     35 H11         -1.5600     0.2380    -0.8860 h2         1 35P       0.140700
     36 H12         -3.6240     2.0010     0.2710 hn         1 35P       0.381000
     37 H14         -3.0670    -2.6310     1.4020 hc         1 35P       0.035867
     38 H15         -4.1720    -2.7260     0.0280 hc         1 35P       0.035867
     39 H16         -2.4910    -2.2080    -0.2100 hc         1 35P       0.035867
     40 H17         -5.1980     0.3800     2.0170 hc         1 35P       0.035867
     41 H18         -5.8100    -1.1530     1.3780 hc         1 35P       0.035867
     42 H19         -4.6150    -1.1510     2.6850 hc         1 35P       0.035867
     43 H20         -5.1990     0.4950    -0.5070 h1         1 35P       0.061700
@<TRIPOS>BOND
     1     1     2 ar  
     2     1     6 ar  
     3     1    25 1   
     4     2     3 ar  
     5     2    26 1   
     6     3     4 ar  
     7     3    27 1   
     8     4     5 ar  
     9     4    28 1   
    10     5     6 ar  
    11     5    29 1   
    12     6     7 1   
    13     7     8 1   
    14     8     9 1   
    15     8    30 1   
    16     8    31 1   
    17     9    10 2   
    18     9    11 1   
    19    11    12 1   
    20    11    32 1   
    21    12    13 1   
    22    12    15 1   
    23    12    33 1   
    24    13    14 2   
    25    13    34 1   
    26    15    16 1   
    27    15    17 1   
    28    15    35 1   
    29    16    21 1   
    30    16    36 1   
    31    17    18 1   
    32    18    19 1   
    33    18    20 1   
    34    18    21 1   
    35    19    37 1   
    36    19    38 1   
    37    19    39 1   
    38    20    40 1   
    39    20    41 1   
    40    20    42 1   
    41    21    22 1   
    42    21    43 1   
    43    22    23 1   
    44    22    24 1   
@<TRIPOS>SUBSTRUCTURE
     1 35P         1 TEMP              0 ****  ****    0 ROOT
