@<TRIPOS>MOLECULE
35Q
   72    76     1     0     0
SMALL
bcc


@<TRIPOS>ATOM
      1 FAD         -5.0910    -3.2730     2.4540 f          1 35Q      -0.222967
      2 CBN         -4.2310    -2.7770     1.5630 c3         1 35Q       0.719100
      3 FAE         -3.2500    -2.1890     2.2560 f          1 35Q      -0.222967
      4 FAF         -3.7080    -3.8150     0.9090 f          1 35Q      -0.222967
      5 CBI         -4.8960    -1.8020     0.6240 cc         1 35Q      -0.065200
      6 CAO         -6.2470    -1.8090     0.5270 cd         1 35Q      -0.214200
      7 CBJ         -6.9590    -0.8990    -0.3420 c          1 35Q       0.694700
      8 OAC         -8.1710    -0.8690    -0.4830 o          1 35Q      -0.601500
      9 NAZ         -6.1350    -0.0270    -1.0250 ns         1 35Q      -0.427100
     10 CAL         -4.7940    -0.0010    -0.9240 cd         1 35Q       0.051600
     11 CBG         -4.1150    -0.8630    -0.1200 cc         1 35Q      -0.241200
     12 CBB         -2.6210    -0.8550    -0.1490 c          1 35Q       0.701300
     13 OAB         -1.9800    -1.8680    -0.3560 o          1 35Q      -0.562100
     14 NAY         -2.0920     0.3730     0.0420 ns         1 35Q      -0.466100
     15 CBF         -0.7630     0.7890    -0.0220 ca         1 35Q       0.082600
     16 CAN          0.3320    -0.0600    -0.1210 ca         1 35Q      -0.141000
     17 CBH         -0.5690     2.1810     0.0640 ca         1 35Q       0.038600
     18 NBM         -1.7260     2.9920     0.1490 nh         1 35Q      -0.656000
     19 CAV         -2.2020     3.4730    -1.1430 c6         1 35Q       0.179300
     20 CAR         -3.5780     4.0910    -0.9870 c6         1 35Q       0.162800
     21 NBK         -3.5570     5.1510    -0.0030 n3         1 35Q      -0.715600
     22 CAA         -4.8470     5.7900     0.1220 c3         1 35Q       0.152100
     23 CAS         -3.0750     4.6600     1.2720 c6         1 35Q       0.162800
     24 CAW         -1.6870     4.0650     1.1290 c6         1 35Q       0.179300
     25 CAK          0.7240     2.6800     0.0630 ca         1 35Q      -0.126000
     26 CAJ          1.8160     1.8310    -0.0290 ca         1 35Q      -0.138000
     27 CBE          1.6300     0.4540    -0.1290 cp         1 35Q      -0.004000
     28 CBD          2.7830    -0.4620    -0.2390 cp         1 35Q      -0.044000
     29 CAM          3.9640    -0.2090     0.4640 ca         1 35Q      -0.113000
     30 CAI          2.7240    -1.5920    -1.0530 ca         1 35Q      -0.108000
     31 CAG          3.8190    -2.4400    -1.1560 ca         1 35Q      -0.134000
     32 CAH          4.9830    -2.1730    -0.4540 ca         1 35Q      -0.099000
     33 CBC          5.0620    -1.0520     0.3690 ca         1 35Q      -0.090300
     34 CAX          6.3160    -0.7760     1.1580 c3         1 35Q       0.214100
     35 NBL          7.5010    -0.8090     0.3270 n3         1 35Q      -0.716600
     36 CAT          7.5230     0.2750    -0.6380 c6         1 35Q       0.126300
     37 H1          -6.8590    -2.4910     1.1000 ha         1 35Q       0.181000
     38 H2          -4.2970     0.7270    -1.5510 h4         1 35Q       0.161000
     39 H4          -2.7110     1.1370     0.3000 hn         1 35Q       0.347500
     40 H5           0.1860    -1.1280    -0.1550 ha         1 35Q       0.171000
     41 H6          -1.5100     4.2130    -1.5710 h1         1 35Q       0.046700
     42 H7          -2.2560     2.6390    -1.8460 h1         1 35Q       0.046700
     43 H8          -3.8940     4.4990    -1.9500 h1         1 35Q       0.035200
     44 H9          -4.3040     3.2990    -0.7220 h1         1 35Q       0.035200
     45 H11         -5.6330     5.1100     0.4850 h1         1 35Q       0.033033
     46 H12         -4.7850     6.6280     0.8180 h1         1 35Q       0.033033
     47 H13         -5.1650     6.1820    -0.8450 h1         1 35Q       0.033033
     48 H14         -3.0340     5.4890     1.9820 h1         1 35Q       0.035200
     49 H15         -3.7490     3.8980     1.7010 h1         1 35Q       0.035200
     50 H16         -1.3640     3.6600     2.0890 h1         1 35Q       0.046700
     51 H17         -0.9830     4.8610     0.8490 h1         1 35Q       0.046700
     52 H18          0.8830     3.7490     0.1220 ha         1 35Q       0.135000
     53 H19          2.8140     2.2490    -0.0500 ha         1 35Q       0.137000
     54 H20          4.0190     0.6570     1.1130 ha         1 35Q       0.129000
     55 H21          1.8300    -1.8030    -1.6270 ha         1 35Q       0.139000
     56 H22          3.7630    -3.3100    -1.7980 ha         1 35Q       0.134000
     57 H23          5.8380    -2.8320    -0.5460 ha         1 35Q       0.144000
     58 H24          6.2120     0.1840     1.6910 h1         1 35Q       0.039700
     59 H25          6.4260    -1.5450     1.9290 h1         1 35Q       0.039700
     60 H28          6.6430     0.2130    -1.2820 h1         1 35Q       0.042700
     61 H29          7.4930     1.2600    -0.1400 h1         1 35Q       0.042700
     62 C1           8.7630     0.1760    -1.5040 c6         1 35Q       0.129900
     63 O1           9.9410     0.1840    -0.7290 os         1 35Q      -0.403600
     64 C3           9.9280    -0.8700     0.2080 c6         1 35Q       0.129900
     65 C4           8.7170    -0.7930     1.1190 c6         1 35Q       0.126300
     66 H10          8.7090    -0.7400    -2.1090 h1         1 35Q       0.050700
     67 H26          8.8130     1.0270    -2.1850 h1         1 35Q       0.050700
     68 H27          9.9310    -1.8410    -0.3080 h1         1 35Q       0.050700
     69 H30         10.8450    -0.8000     0.7950 h1         1 35Q       0.050700
     70 H31          8.7860     0.1120     1.7480 h1         1 35Q       0.042700
     71 H32          8.7250    -1.6550     1.7910 h1         1 35Q       0.042700
     72 H33         -6.5810     0.6280    -1.6550 hn         1 35Q       0.335500
@<TRIPOS>BOND
     1     1     2 1   
     2     2     3 1   
     3     2     4 1   
     4     2     5 1   
     5     5     6 2   
     6     5    11 1   
     7     6     7 1   
     8     6    37 1   
     9     7     8 2   
    10     7     9 1   
    11     9    10 1   
    12     9    72 1   
    13    10    11 2   
    14    10    38 1   
    15    11    12 1   
    16    12    13 2   
    17    12    14 1   
    18    14    15 1   
    19    14    39 1   
    20    15    16 ar  
    21    15    17 ar  
    22    16    27 ar  
    23    16    40 1   
    24    17    18 1   
    25    17    25 ar  
    26    18    19 1   
    27    18    24 1   
    28    19    20 1   
    29    19    41 1   
    30    19    42 1   
    31    20    21 1   
    32    20    43 1   
    33    20    44 1   
    34    21    22 1   
    35    21    23 1   
    36    22    45 1   
    37    22    46 1   
    38    22    47 1   
    39    23    24 1   
    40    23    48 1   
    41    23    49 1   
    42    24    50 1   
    43    24    51 1   
    44    25    26 ar  
    45    25    52 1   
    46    26    27 ar  
    47    26    53 1   
    48    27    28 1   
    49    28    29 ar  
    50    28    30 ar  
    51    29    33 ar  
    52    29    54 1   
    53    30    31 ar  
    54    30    55 1   
    55    31    32 ar  
    56    31    56 1   
    57    32    33 ar  
    58    32    57 1   
    59    33    34 1   
    60    34    35 1   
    61    34    58 1   
    62    34    59 1   
    63    35    36 1   
    64    35    65 1   
    65    36    60 1   
    66    36    61 1   
    67    36    62 1   
    68    62    63 1   
    69    62    66 1   
    70    62    67 1   
    71    63    64 1   
    72    64    65 1   
    73    64    68 1   
    74    64    69 1   
    75    65    70 1   
    76    65    71 1   
@<TRIPOS>SUBSTRUCTURE
     1 35Q         1 TEMP              0 ****  ****    0 ROOT
