@<TRIPOS>MOLECULE
35Q
   72    76     1     0     0
SMALL
No Charge or Current Charge


@<TRIPOS>ATOM
      1 FAD         -5.6130    -4.1970     1.3720 f          1 35Q      -0.101667
      2 CBN         -4.6040    -3.3410     1.0870 c3         1 35Q       0.355200
      3 FAE         -3.8510    -3.2760     2.2090 f          1 35Q      -0.101667
      4 FAF         -3.8740    -3.9430     0.1200 f          1 35Q      -0.101667
      5 CBI         -5.1170    -1.9600     0.6510 cc         1 35Q      -0.065200
      6 CAO         -6.4860    -1.7250     0.5580 cd         1 35Q      -0.264200
      7 CBJ         -7.0980    -0.4550     0.1650 c          1 35Q       0.552200
      8 OAC         -8.3020    -0.2690     0.0900 o          1 35Q      -0.526000
      9 NAZ         -6.1900     0.5190    -0.1140 ns         1 35Q      -0.360100
     10 CAL         -4.8180     0.3850    -0.0550 cd         1 35Q       0.001600
     11 CBG         -4.2280    -0.8260     0.3220 cc         1 35Q      -0.241200
     12 CBB         -2.7130    -0.9070     0.3620 c          1 35Q       0.634300
     13 OAB         -2.0790    -1.9220     0.6090 o          1 35Q      -0.562100
     14 NAY         -2.0750     0.2960     0.0980 ns         1 35Q      -0.140000
     15 CBF         -0.7100     0.6830    -0.0020 ca         1 35Q      -0.010000
     16 CAN          0.3700    -0.2290     0.0230 ca         1 35Q      -0.123000
     17 CBH         -0.4520     2.0630    -0.1600 ca         1 35Q       0.177000
     18 NBM         -1.5240     2.9870    -0.1820 nh         1 35Q      -0.794400
     19 CAV         -1.6590     3.9360    -1.3320 c6         1 35Q       0.179300
     20 CAR         -3.0780     4.5890    -1.4000 c6         1 35Q       0.162800
     21 NBK         -3.4720     5.2480    -0.1170 n3         1 35Q      -0.715600
     22 CAA         -4.7970     5.9000    -0.1920 c3         1 35Q       0.152100
     23 CAS         -3.3700     4.2730     1.0110 c6         1 35Q       0.162800
     24 CAW         -1.9590     3.6050     1.1100 c6         1 35Q       0.179300
     25 CAK          0.8730     2.5130    -0.2800 ca         1 35Q      -0.108000
     26 CAJ          1.9410     1.6010    -0.2490 ca         1 35Q      -0.120000
     27 CBE          1.7110     0.2130    -0.0980 cp         1 35Q      -0.004000
     28 CBD          2.8510    -0.7580    -0.0710 cp         1 35Q      -0.044000
     29 CAM          4.0830    -0.4220     0.5460 ca         1 35Q      -0.095000
     30 CAI          2.7360    -2.0410    -0.6630 ca         1 35Q      -0.090000
     31 CAG          3.8080    -2.9490    -0.6400 ca         1 35Q      -0.116000
     32 CAH          5.0180    -2.5930    -0.0240 ca         1 35Q      -0.081000
     33 CBC          5.1620    -1.3280     0.5740 ca         1 35Q      -0.090300
     34 CAX          6.4780    -0.9440     1.2440 c3         1 35Q       0.214100
     35 NBL          7.5820    -0.7150     0.2810 n3         1 35Q      -0.716600
     36 CAT          7.3060     0.3940    -0.6880 c6         1 35Q       0.126300
     37 H1          -7.2250    -2.4860     0.7770 ha         1 35Q       0.231000
     38 H2          -4.3040     1.3000    -0.3400 h4         1 35Q       0.211000
     39 H4          -2.6950     1.0800    -0.0450 hn         1 35Q       0.181000
     40 H5           0.1900    -1.2910     0.1430 ha         1 35Q       0.153000
     41 H6          -0.9090     4.7360    -1.2460 h1         1 35Q       0.046700
     42 H7          -1.4700     3.4100    -2.2790 h1         1 35Q       0.046700
     43 H8          -3.0860     5.3210    -2.2210 h1         1 35Q       0.035200
     44 H9          -3.8080     3.8090    -1.6610 h1         1 35Q       0.035200
     45 H11         -5.5870     5.1610    -0.3850 h1         1 35Q       0.033033
     46 H12         -5.0290     6.4150     0.7490 h1         1 35Q       0.033033
     47 H13         -4.8170     6.6440    -0.9990 h1         1 35Q       0.033033
     48 H14         -3.5860     4.7740     1.9660 h1         1 35Q       0.035200
     49 H15         -4.1220     3.4800     0.8900 h1         1 35Q       0.035200
     50 H16         -1.9880     2.8440     1.9030 h1         1 35Q       0.046700
     51 H17         -1.2290     4.3680     1.4180 h1         1 35Q       0.046700
     52 H18          1.0770     3.5730    -0.3940 ha         1 35Q       0.117000
     53 H19          2.9550     1.9760    -0.3560 ha         1 35Q       0.119000
     54 H20          4.1980     0.5500     1.0180 ha         1 35Q       0.111000
     55 H21          1.8130    -2.3310    -1.1590 ha         1 35Q       0.121000
     56 H22          3.7020    -3.9270    -1.1050 ha         1 35Q       0.116000
     57 H23          5.8480    -3.2970    -0.0130 ha         1 35Q       0.126000
     58 H24          6.3230    -0.0460     1.8570 h1         1 35Q       0.039700
     59 H25          6.7530    -1.7530     1.9340 h1         1 35Q       0.039700
     60 H28          6.3980     0.1830    -1.2700 h1         1 35Q       0.042700
     61 H29          7.1320     1.3370    -0.1500 h1         1 35Q       0.042700
     62 C1           8.4890     0.5990    -1.6820 c6         1 35Q       0.153100
     63 O1           9.7250     0.8120    -0.9590 os         1 35Q      -0.450000
     64 C3          10.0490    -0.2870    -0.0740 c6         1 35Q       0.153100
     65 C4           8.9010    -0.5100     0.9560 c6         1 35Q       0.126300
     66 H10          8.5940    -0.2850    -2.3270 h1         1 35Q       0.050700
     67 H26          8.2920     1.4690    -2.3240 h1         1 35Q       0.050700
     68 H27         10.2020    -1.2000    -0.6680 h1         1 35Q       0.050700
     69 H30         10.9870    -0.0610     0.4530 h1         1 35Q       0.050700
     70 H31          8.8560     0.3630     1.6250 h1         1 35Q       0.042700
     71 H32          9.1510    -1.3810     1.5800 h1         1 35Q       0.042700
     72 H33         -6.6030     1.4020    -0.3910 hn         1 35Q       0.335500
@<TRIPOS>BOND
     1     1     2 1   
     2     2     3 1   
     3     2     4 1   
     4     2     5 1   
     5     5     6 2   
     6     5    11 1   
     7     6     7 1   
     8     6    37 1   
     9     7     8 2   
    10     7     9 1   
    11     9    10 1   
    12     9    72 1   
    13    10    11 2   
    14    10    38 1   
    15    11    12 1   
    16    12    13 2   
    17    12    14 1   
    18    14    15 1   
    19    14    39 1   
    20    15    16 ar  
    21    15    17 ar  
    22    16    27 ar  
    23    16    40 1   
    24    17    18 1   
    25    17    25 ar  
    26    18    19 1   
    27    18    24 1   
    28    19    20 1   
    29    19    41 1   
    30    19    42 1   
    31    20    21 1   
    32    20    43 1   
    33    20    44 1   
    34    21    22 1   
    35    21    23 1   
    36    22    45 1   
    37    22    46 1   
    38    22    47 1   
    39    23    24 1   
    40    23    48 1   
    41    23    49 1   
    42    24    50 1   
    43    24    51 1   
    44    25    26 ar  
    45    25    52 1   
    46    26    27 ar  
    47    26    53 1   
    48    27    28 1   
    49    28    29 ar  
    50    28    30 ar  
    51    29    33 ar  
    52    29    54 1   
    53    30    31 ar  
    54    30    55 1   
    55    31    32 ar  
    56    31    56 1   
    57    32    33 ar  
    58    32    57 1   
    59    33    34 1   
    60    34    35 1   
    61    34    58 1   
    62    34    59 1   
    63    35    36 1   
    64    35    65 1   
    65    36    60 1   
    66    36    61 1   
    67    36    62 1   
    68    62    63 1   
    69    62    66 1   
    70    62    67 1   
    71    63    64 1   
    72    64    65 1   
    73    64    68 1   
    74    64    69 1   
    75    65    70 1   
    76    65    71 1   
@<TRIPOS>SUBSTRUCTURE
     1 35Q         1 TEMP              0 ****  ****    0 ROOT
