@<TRIPOS>MOLECULE
35R
   51    55     1     0     0
SMALL
bcc


@<TRIPOS>ATOM
      1 O1          -5.7040     0.6990     0.0960 o          1 35R      -0.637100
      2 C2          -4.5450     0.9970     0.3470 c          1 35R       0.796100
      3 N3          -4.1790     2.2050     0.8460 ns         1 35R      -0.563900
      4 C4          -5.1540     3.1780     1.2040 cx         1 35R       0.058700
      5 C5          -5.8350     3.9510     0.1210 cx         1 35R      -0.131900
      6 C6          -4.8040     4.6140     0.9800 cx         1 35R      -0.131900
      7 N7          -3.5020     0.1400     0.1360 ns         1 35R      -0.466100
      8 C8          -3.6380    -1.1530    -0.3320 cc         1 35R      -0.041700
      9 C9          -4.7460    -1.8750    -0.7250 cd         1 35R      -0.167300
     10 N10         -4.2800    -3.0920    -1.0840 na         1 35R       0.018400
     11 N12         -2.9820    -3.2250    -0.9620 nd         1 35R      -0.517800
     12 C13         -2.5610    -2.0530    -0.5030 cc         1 35R       0.240000
     13 C14         -1.1690    -1.7930    -0.2290 cc         1 35R       0.402800
     14 N15         -0.1930    -2.7200    -0.3910 na         1 35R      -0.239300
     15 C16          0.9900    -2.1290    -0.0350 ca         1 35R      -0.078200
     16 C17          2.3040    -2.5840    -0.0010 ca         1 35R      -0.133000
     17 C18          3.2640    -1.6850     0.4220 ca         1 35R      -0.092000
     18 C19          2.9440    -0.3670     0.8030 ca         1 35R      -0.105300
     19 C20          4.0440     0.5500     1.2710 c3         1 35R       0.219100
     20 N21          5.1460     0.6100     0.3330 n3         1 35R      -0.720600
     21 C23          6.2900     1.3080     0.8860 c6         1 35R       0.127300
     22 C24          7.4360     1.2960    -0.1080 c6         1 35R       0.130400
     23 O25          7.0590     1.8660    -1.3420 os         1 35R      -0.404600
     24 C26          5.9450     1.1930    -1.8870 c6         1 35R       0.130400
     25 C27          4.7650     1.2040    -0.9350 c6         1 35R       0.127300
     26 C28          1.6320     0.0700     0.7580 ca         1 35R      -0.073000
     27 C29          0.6440    -0.8220     0.3390 ca         1 35R       0.076400
     28 N30         -0.7110    -0.6430     0.2060 nd         1 35R      -0.621100
     29 H1          -3.2390     2.3370     1.1850 hn         1 35R       0.318500
     30 H2          -5.7430     2.9540     2.0890 h1         1 35R       0.081700
     31 H3          -5.5670     3.7180    -0.9010 hc         1 35R       0.077700
     32 H4          -6.8750     4.2100     0.2670 hc         1 35R       0.077700
     33 H5          -5.1310     5.3300     1.7230 hc         1 35R       0.077700
     34 H6          -3.8410     4.8350     0.5390 hc         1 35R       0.077700
     35 H7          -2.5460     0.4190     0.3330 hn         1 35R       0.360500
     36 H8          -5.7910    -1.6320    -0.7770 h4         1 35R       0.206000
     37 H9          -4.8340    -3.8650    -1.4190 hn         1 35R       0.328700
     38 H10         -0.3270    -3.6660    -0.7110 hn         1 35R       0.321700
     39 H11          2.5660    -3.5920    -0.2910 ha         1 35R       0.138000
     40 H12          4.3010    -1.9960     0.4540 ha         1 35R       0.145000
     41 H13          3.6250     1.5480     1.4810 h1         1 35R       0.038200
     42 H14          4.4390     0.1800     2.2230 h1         1 35R       0.038200
     43 H16          6.0450     2.3510     1.1530 h1         1 35R       0.042450
     44 H17          6.6110     0.8080     1.8040 h1         1 35R       0.042450
     45 H18          8.2750     1.8770     0.2780 h1         1 35R       0.049950
     46 H19          7.7790     0.2610    -0.2520 h1         1 35R       0.049950
     47 H20          5.6810     1.6970    -2.8180 h1         1 35R       0.049950
     48 H21          6.2060     0.1520    -2.1260 h1         1 35R       0.049950
     49 H22          3.9500     0.6290    -1.3800 h1         1 35R       0.042450
     50 H23          4.4000     2.2390    -0.8060 h1         1 35R       0.042450
     51 H24          1.3730     1.0830     1.0410 ha         1 35R       0.141000
@<TRIPOS>BOND
     1     1     2 2   
     2     2     3 1   
     3     2     7 1   
     4     3     4 1   
     5     3    29 1   
     6     4     5 1   
     7     4     6 1   
     8     4    30 1   
     9     5     6 1   
    10     5    31 1   
    11     5    32 1   
    12     6    33 1   
    13     6    34 1   
    14     7     8 1   
    15     7    35 1   
    16     8     9 2   
    17     8    12 1   
    18     9    10 1   
    19     9    36 1   
    20    10    11 1   
    21    10    37 1   
    22    11    12 2   
    23    12    13 1   
    24    13    14 1   
    25    13    28 2   
    26    14    15 1   
    27    14    38 1   
    28    15    16 ar  
    29    15    27 ar  
    30    16    17 ar  
    31    16    39 1   
    32    17    18 ar  
    33    17    40 1   
    34    18    19 1   
    35    18    26 ar  
    36    19    20 1   
    37    19    41 1   
    38    19    42 1   
    39    20    21 1   
    40    20    25 1   
    41    21    22 1   
    42    21    43 1   
    43    21    44 1   
    44    22    23 1   
    45    22    45 1   
    46    22    46 1   
    47    23    24 1   
    48    24    25 1   
    49    24    47 1   
    50    24    48 1   
    51    25    49 1   
    52    25    50 1   
    53    26    27 ar  
    54    26    51 1   
    55    27    28 1   
@<TRIPOS>SUBSTRUCTURE
     1 35R         1 TEMP              0 ****  ****    0 ROOT
