@<TRIPOS>MOLECULE
35R
   51    55     1     0     0
SMALL
No Charge or Current Charge


@<TRIPOS>ATOM
      1 O1          -5.7340     0.7240    -0.0050 o          1 35R      -0.637100
      2 C2          -4.5500     0.8990     0.2370 c          1 35R       0.662100
      3 N3          -4.0510     2.0960     0.6880 ns         1 35R      -0.496900
      4 C4          -4.8520     3.2660     0.9210 cx         1 35R       0.058700
      5 C5          -4.8740     4.3260    -0.1530 cx         1 35R      -0.131900
      6 C6          -4.1340     4.5750     1.1380 cx         1 35R      -0.131900
      7 N7          -3.5760    -0.0600     0.0940 ns         1 35R      -0.399100
      8 C8          -3.6900    -1.3800    -0.3330 cc         1 35R       0.023600
      9 C9          -4.8300    -2.0210    -0.7130 cd         1 35R      -0.200000
     10 N10         -4.4210    -3.3180    -1.0500 na         1 35R       0.018800
     11 N12         -3.0480    -3.5020    -0.8910 nd         1 35R      -0.517800
     12 C13         -2.6350    -2.3170    -0.4580 cc         1 35R       0.174700
     13 C14         -1.2620    -1.9630    -0.1310 cc         1 35R       0.402800
     14 N15         -0.2510    -2.9130    -0.2660 na         1 35R      -0.289600
     15 C16          0.9130    -2.3140     0.1030 ca         1 35R      -0.078200
     16 C17          2.2160    -2.8220     0.1490 ca         1 35R      -0.115000
     17 C18          3.2380    -1.9500     0.5800 ca         1 35R      -0.074000
     18 C19          2.9370    -0.6130     0.9490 ca         1 35R      -0.105300
     19 C20          4.0530     0.3180     1.4100 c3         1 35R       0.219100
     20 N21          5.0090     0.6650     0.3330 n3         1 35R      -0.720600
     21 C23          6.1910     1.4310     0.8360 c6         1 35R       0.127300
     22 C24          7.1910     1.7700    -0.3110 c6         1 35R       0.153600
     23 O25          6.5120     2.4740    -1.3780 os         1 35R      -0.451000
     24 C26          5.4110     1.7160    -1.9340 c6         1 35R       0.153600
     25 C27          4.3730     1.3740    -0.8240 c6         1 35R       0.127300
     26 C28          1.6010    -0.1470     0.8840 ca         1 35R      -0.055000
     27 C29          0.6030    -1.0320     0.4520 ca         1 35R       0.076400
     28 N30         -0.7610    -0.7840     0.3140 nd         1 35R      -0.621100
     29 H1          -3.0560     2.1420     0.8670 hn         1 35R       0.318500
     30 H2          -5.7680     3.0840     1.4860 h1         1 35R       0.081700
     31 H3          -4.2870     4.1540    -1.0520 hc         1 35R       0.077700
     32 H4          -5.8080     4.8580    -0.3140 hc         1 35R       0.077700
     33 H5          -4.5690     5.2770     1.8450 hc         1 35R       0.077700
     34 H6          -3.0470     4.5780     1.1060 hc         1 35R       0.077700
     35 H7          -2.6410     0.2500     0.3380 hn         1 35R       0.360500
     36 H8          -5.8610    -1.6890    -0.7720 h4         1 35R       0.188000
     37 H9          -5.0240    -4.0730    -1.3800 hn         1 35R       0.379000
     38 H10         -0.3840    -3.8640    -0.5830 hn         1 35R       0.372000
     39 H11          2.4350    -3.8480    -0.1370 ha         1 35R       0.120000
     40 H12          4.2650    -2.3050     0.6250 ha         1 35R       0.127000
     41 H13          3.6120     1.2340     1.8280 h1         1 35R       0.038200
     42 H14          4.5880    -0.1790     2.2320 h1         1 35R       0.038200
     43 H16          5.8650     2.3710     1.3050 h1         1 35R       0.042450
     44 H17          6.7220     0.8530     1.6070 h1         1 35R       0.042450
     45 H18          8.0050     2.4000     0.0760 h1         1 35R       0.049950
     46 H19          7.6330     0.8460    -0.7090 h1         1 35R       0.049950
     47 H20          4.9310     2.3060    -2.7270 h1         1 35R       0.049950
     48 H21          5.7980     0.7900    -2.3830 h1         1 35R       0.049950
     49 H22          3.5800     0.7550    -1.2690 h1         1 35R       0.042450
     50 H23          3.9000     2.3080    -0.4850 h1         1 35R       0.042450
     51 H24          1.3480     0.8730     1.1580 ha         1 35R       0.123000
@<TRIPOS>BOND
     1     1     2 2   
     2     2     3 1   
     3     2     7 1   
     4     3     4 1   
     5     3    29 1   
     6     4     5 1   
     7     4     6 1   
     8     4    30 1   
     9     5     6 1   
    10     5    31 1   
    11     5    32 1   
    12     6    33 1   
    13     6    34 1   
    14     7     8 1   
    15     7    35 1   
    16     8     9 2   
    17     8    12 1   
    18     9    10 1   
    19     9    36 1   
    20    10    11 1   
    21    10    37 1   
    22    11    12 2   
    23    12    13 1   
    24    13    14 1   
    25    13    28 2   
    26    14    15 1   
    27    14    38 1   
    28    15    16 ar  
    29    15    27 ar  
    30    16    17 ar  
    31    16    39 1   
    32    17    18 ar  
    33    17    40 1   
    34    18    19 1   
    35    18    26 ar  
    36    19    20 1   
    37    19    41 1   
    38    19    42 1   
    39    20    21 1   
    40    20    25 1   
    41    21    22 1   
    42    21    43 1   
    43    21    44 1   
    44    22    23 1   
    45    22    45 1   
    46    22    46 1   
    47    23    24 1   
    48    24    25 1   
    49    24    47 1   
    50    24    48 1   
    51    25    49 1   
    52    25    50 1   
    53    26    27 ar  
    54    26    51 1   
    55    27    28 1   
@<TRIPOS>SUBSTRUCTURE
     1 35R         1 TEMP              0 ****  ****    0 ROOT
