@<TRIPOS>MOLECULE
35S
   69    73     1     0     0
SMALL
No Charge or Current Charge


@<TRIPOS>ATOM
      1 Cl1         -3.1030     4.1780     3.3800 cl         1 35S      -0.233000
      2 C9          -2.3690     2.9580     2.3480 ca         1 35S       0.117000
      3 C24         -2.3970     1.6080     2.7300 ca         1 35S      -0.113500
      4 C25         -1.8100     0.6320     1.9070 ca         1 35S      -0.083500
      5 C27         -1.7570     3.3340     1.1440 ca         1 35S      -0.113500
      6 C28         -1.1700     2.3590     0.3180 ca         1 35S      -0.083500
      7 C6          -1.1840     0.9990     0.6960 ca         1 35S      -0.106300
      8 C7          -0.5590    -0.0560    -0.2410 c6         1 35S       0.180000
      9 N2           0.7810    -0.5590     0.2070 n          1 35S      -0.405800
     10 C8           1.8410     0.4820     0.4640 c3         1 35S       0.064400
     11 C11          1.1980    -1.9140     0.0200 c          1 35S       0.590000
     12 O1           2.3410    -2.2470     0.3100 o          1 35S      -0.536000
     13 C12          0.2300    -2.9600    -0.6760 c6         1 35S      -0.098000
     14 C13         -0.3720    -3.9450     0.4170 c3         1 35S      -0.198400
     15 C14          0.1470    -3.5160     1.7950 c          1 35S       0.719000
     16 O2           1.1090    -4.1100     2.2590 o          1 35S      -0.730500
     17 O3          -0.5080    -2.7020     2.4240 o          1 35S      -0.730500
     18 C15         -0.9050    -2.2440    -1.4600 c6         1 35S      -0.069400
     19 C16         -1.5850    -1.1610    -0.6010 c6         1 35S      -0.027400
     20 C17         -2.8260    -0.5680    -1.2900 ca         1 35S      -0.055300
     21 C18         -2.7390     0.0130    -2.5730 ca         1 35S      -0.106000
     22 C19         -3.8770     0.5710    -3.1810 ca         1 35S      -0.109000
     23 C20         -5.1110     0.5570    -2.5100 ca         1 35S      -0.115000
     24 C21         -5.2030    -0.0150    -1.2310 ca         1 35S       0.120000
     25 Cl2         -6.7460    -0.0260    -0.3860 cl         1 35S      -0.219000
     26 C22         -4.0690    -0.5750    -0.6230 ca         1 35S      -0.093000
     27 C10          2.3530     0.4990     1.9410 c3         1 35S      -0.056400
     28 C23          1.2670     0.6510     3.0220 c3         1 35S      -0.098100
     29 C26          1.0680    -3.8190    -1.6820 c3         1 35S      -0.066100
     30 C29          5.2390     0.7170    -1.1130 ca         1 35S       0.384300
     31 C30          4.9910     0.5430    -2.4890 ca         1 35S      -0.178000
     32 C31          3.6750     0.3450    -2.9300 ca         1 35S      -0.080000
     33 C4           2.6530     0.3240    -1.9700 ca         1 35S      -0.144000
     34 C5           2.9700     0.4920    -0.6040 ca         1 35S       0.353300
     35 N1           4.2490     0.6970    -0.1940 nb         1 35S      -0.686000
     36 C1           7.8530     0.2640    -1.1510 cx         1 35S      -0.127400
     37 C2           7.6730     1.7550    -1.3070 cx         1 35S      -0.127400
     38 C3           6.6300     0.9410    -0.5690 cx         1 35S      -0.172000
     39 H1          -2.8720     1.3190     3.6640 ha         1 35S       0.126000
     40 H2          -1.8340    -0.4070     2.2240 ha         1 35S       0.147500
     41 H3          -1.7400     4.3800     0.8480 ha         1 35S       0.126000
     42 H4          -0.7060     2.6650    -0.6180 ha         1 35S       0.147500
     43 H5          -0.3590     0.4670    -1.1860 h1         1 35S       0.039700
     44 H6           1.3620     1.4590     0.3330 h1         1 35S       0.063700
     45 H7          -1.4640    -3.8570     0.3930 hc         1 35S       0.024700
     46 H8          -0.0350    -4.9660     0.1990 hc         1 35S       0.024700
     47 H10         -0.4890    -1.7820    -2.3660 hc         1 35S       0.038200
     48 H11         -1.6490    -2.9750    -1.8060 hc         1 35S       0.038200
     49 H12         -1.9170    -1.6370     0.3280 hc         1 35S       0.081700
     50 H13         -1.7900     0.0400    -3.1030 ha         1 35S       0.121000
     51 H14         -3.8010     1.0170    -4.1710 ha         1 35S       0.110000
     52 H15         -5.9920     0.9900    -2.9770 ha         1 35S       0.120000
     53 H16         -4.1590    -1.0080     0.3700 ha         1 35S       0.137000
     54 H17          2.9230    -0.4150     2.1440 hc         1 35S       0.051200
     55 H18          3.0510     1.3350     2.0670 hc         1 35S       0.051200
     56 H19          1.7260     0.7020     4.0160 hc         1 35S       0.045700
     57 H20          0.6920     1.5720     2.8670 hc         1 35S       0.045700
     58 H21          0.5840    -0.2040     3.0120 hc         1 35S       0.045700
     59 H22          1.8510    -4.3960    -1.1760 hc         1 35S       0.039033
     60 H23          0.4340    -4.5320    -2.2240 hc         1 35S       0.039033
     61 H24          1.5610    -3.1840    -2.4290 hc         1 35S       0.039033
     62 H27          1.6250     0.1780    -2.2850 ha         1 35S       0.138000
     63 H28          7.7280    -0.3580    -2.0350 hc         1 35S       0.069450
     64 H29          8.6160    -0.0850    -0.4590 hc         1 35S       0.069450
     65 H30          8.3150     2.4070    -0.7190 hc         1 35S       0.069450
     66 H31          7.4270     2.1370    -2.2950 hc         1 35S       0.069450
     67 H32          6.6240     1.0530     0.5140 hc         1 35S       0.099700
     68 H25          5.8040     0.5640    -3.2080 ha         1 35S       0.111000
     69 H26          3.4530     0.2130    -3.9870 ha         1 35S       0.110000
@<TRIPOS>BOND
     1     1     2 1   
     2     2     3 ar  
     3     2     5 ar  
     4     3     4 ar  
     5     3    39 1   
     6     4     7 ar  
     7     4    40 1   
     8     5     6 ar  
     9     5    41 1   
    10     6     7 ar  
    11     6    42 1   
    12     7     8 1   
    13     8     9 1   
    14     8    19 1   
    15     8    43 1   
    16     9    10 1   
    17     9    11 1   
    18    10    27 1   
    19    10    34 1   
    20    10    44 1   
    21    11    12 2   
    22    11    13 1   
    23    13    14 1   
    24    13    18 1   
    25    13    29 1   
    26    14    15 1   
    27    14    45 1   
    28    14    46 1   
    29    15    16 1   
    30    15    17 1   
    31    18    19 1   
    32    18    47 1   
    33    18    48 1   
    34    19    20 1   
    35    19    49 1   
    36    20    21 ar  
    37    20    26 ar  
    38    21    22 ar  
    39    21    50 1   
    40    22    23 ar  
    41    22    51 1   
    42    23    24 ar  
    43    23    52 1   
    44    24    25 1   
    45    24    26 ar  
    46    26    53 1   
    47    27    28 1   
    48    27    54 1   
    49    27    55 1   
    50    28    56 1   
    51    28    57 1   
    52    28    58 1   
    53    29    59 1   
    54    29    60 1   
    55    29    61 1   
    56    30    31 ar  
    57    30    35 ar  
    58    30    38 1   
    59    31    32 ar  
    60    31    68 1   
    61    32    33 ar  
    62    32    69 1   
    63    33    34 ar  
    64    33    62 1   
    65    34    35 ar  
    66    36    37 1   
    67    36    38 1   
    68    36    63 1   
    69    36    64 1   
    70    37    38 1   
    71    37    65 1   
    72    37    66 1   
    73    38    67 1   
@<TRIPOS>SUBSTRUCTURE
     1 35S         1 TEMP              0 ****  ****    0 ROOT
