@<TRIPOS>MOLECULE
35S
   69    73     1     0     0
SMALL
bcc


@<TRIPOS>ATOM
      1 CL1         -2.7920     3.3610     4.1040 cl         1 35S      -0.141400
      2 C9          -2.0530     2.3430     2.9090 ca         1 35S       0.025400
      3 C24         -1.7510     1.0270     3.2310 ca         1 35S      -0.131500
      4 C25         -1.1590     0.2150     2.2760 ca         1 35S      -0.101500
      5 C27         -1.7700     2.8570     1.6560 ca         1 35S      -0.131500
      6 C28         -1.1730     2.0320     0.7120 ca         1 35S      -0.101500
      7 C6          -0.8650     0.7100     1.0090 ca         1 35S      -0.106300
      8 C7          -0.2880    -0.1920    -0.0600 c6         1 35S       0.180000
      9 N2           0.8070    -1.0100     0.4630 n          1 35S      -0.472800
     10 C8           1.9910    -0.1910     0.7440 c3         1 35S       0.064400
     11 C11          0.8740    -2.3670     0.4320 c          1 35S       0.732500
     12 O1           1.8840    -2.9610     0.7740 o          1 35S      -0.611500
     13 C12         -0.3250    -3.1450    -0.1110 c6         1 35S      -0.098000
     14 C13         -1.3380    -3.4500     1.0160 c3         1 35S      -0.198400
     15 C14         -0.7140    -4.0830     2.2690 c          1 35S       0.929600
     16 O2          -0.5880    -5.3240     2.2930 o          1 35S      -0.835800
     17 O3          -0.3860    -3.2910     3.1790 o          1 35S      -0.835800
     18 C15         -0.9790    -2.3290    -1.2290 c6         1 35S      -0.069400
     19 C16         -1.4410    -0.9720    -0.7310 c6         1 35S      -0.027400
     20 C17         -2.0660    -0.1290    -1.8150 ca         1 35S      -0.055300
     21 C18         -1.3700     0.1900    -2.9800 ca         1 35S      -0.124000
     22 C19         -1.9580     0.9730    -3.9610 ca         1 35S      -0.127000
     23 C20         -3.2500     1.4560    -3.8030 ca         1 35S      -0.133000
     24 C21         -3.9340     1.1370    -2.6420 ca         1 35S       0.028400
     25 CL2         -5.5480     1.7330    -2.4140 cl         1 35S      -0.127400
     26 C22         -3.3590     0.3550    -1.6530 ca         1 35S      -0.111000
     27 C10          2.8590    -0.5660     1.9520 c3         1 35S      -0.056400
     28 C23          2.0850    -0.7000     3.2530 c3         1 35S      -0.098100
     29 C26          0.1780    -4.4550    -0.7200 c3         1 35S      -0.066100
     30 C29          4.4770     1.3670    -1.4200 ca         1 35S       0.449600
     31 C30          4.5000     0.6020    -2.5870 ca         1 35S      -0.261300
     32 C31          3.6500    -0.4820    -2.6800 ca         1 35S      -0.098000
     33 C4           2.8070    -0.7870    -1.6200 ca         1 35S      -0.227300
     34 C5           2.8480     0.0210    -0.4930 ca         1 35S       0.418600
     35 N1           3.6640     1.0700    -0.4110 nb         1 35S      -0.686000
     36 C1           6.7490     2.5870    -1.7530 cx         1 35S      -0.127400
     37 C2           5.7090     3.4400    -2.3890 cx         1 35S      -0.127400
     38 C3           5.3370     2.5560    -1.2280 cx         1 35S      -0.172000
     39 H1          -1.9730     0.6390     4.2160 ha         1 35S       0.144000
     40 H2          -0.9140    -0.8100     2.5320 ha         1 35S       0.165500
     41 H3          -2.0050     3.8850     1.4140 ha         1 35S       0.144000
     42 H4          -0.9460     2.4330    -0.2680 ha         1 35S       0.165500
     43 H5           0.1620     0.4500    -0.8270 h1         1 35S       0.039700
     44 H6           1.5930     0.7970     0.9930 h1         1 35S       0.063700
     45 H7          -1.8450    -2.5350     1.3220 hc         1 35S       0.024700
     46 H8          -2.0970    -4.1110     0.5860 hc         1 35S       0.024700
     47 H10         -0.2660    -2.2190    -2.0530 hc         1 35S       0.038200
     48 H11         -1.8330    -2.8780    -1.6330 hc         1 35S       0.038200
     49 H12         -2.2140    -1.1420     0.0200 hc         1 35S       0.081700
     50 H13         -0.3590    -0.1680    -3.1310 ha         1 35S       0.139000
     51 H14         -1.4080     1.2140    -4.8610 ha         1 35S       0.128000
     52 H15         -3.7100     2.0660    -4.5680 ha         1 35S       0.138000
     53 H16         -3.9130     0.1220    -0.7520 ha         1 35S       0.155000
     54 H17          3.4360    -1.4660     1.7550 hc         1 35S       0.051200
     55 H18          3.5800     0.2490     2.0490 hc         1 35S       0.051200
     56 H19          2.7710    -0.9180     4.0730 hc         1 35S       0.045700
     57 H20          1.5650     0.2270     3.5030 hc         1 35S       0.045700
     58 H21          1.3460    -1.4980     3.2120 hc         1 35S       0.045700
     59 H22          0.6420    -5.1020     0.0180 hc         1 35S       0.039033
     60 H23         -0.6650    -4.9950    -1.1540 hc         1 35S       0.039033
     61 H24          0.8980    -4.2690    -1.5190 hc         1 35S       0.039033
     62 H27          2.1390    -1.6320    -1.6970 ha         1 35S       0.156000
     63 H28          7.1050     1.7180    -2.2940 hc         1 35S       0.069450
     64 H29          7.4970     3.0600    -1.1310 hc         1 35S       0.069450
     65 H30          5.7340     4.5070    -2.2100 hc         1 35S       0.069450
     66 H31          5.3460     3.1610    -3.3710 hc         1 35S       0.069450
     67 H32          5.1680     3.0520    -0.2800 hc         1 35S       0.099700
     68 H25          5.1620     0.8510    -3.4070 ha         1 35S       0.129000
     69 H26          3.6390    -1.0920    -3.5740 ha         1 35S       0.128000
@<TRIPOS>BOND
     1     1     2 1   
     2     2     3 ar  
     3     2     5 ar  
     4     3     4 ar  
     5     3    39 1   
     6     4     7 ar  
     7     4    40 1   
     8     5     6 ar  
     9     5    41 1   
    10     6     7 ar  
    11     6    42 1   
    12     7     8 1   
    13     8     9 1   
    14     8    19 1   
    15     8    43 1   
    16     9    10 1   
    17     9    11 1   
    18    10    27 1   
    19    10    34 1   
    20    10    44 1   
    21    11    12 2   
    22    11    13 1   
    23    13    14 1   
    24    13    18 1   
    25    13    29 1   
    26    14    15 1   
    27    14    45 1   
    28    14    46 1   
    29    15    16 1   
    30    15    17 1   
    31    18    19 1   
    32    18    47 1   
    33    18    48 1   
    34    19    20 1   
    35    19    49 1   
    36    20    21 ar  
    37    20    26 ar  
    38    21    22 ar  
    39    21    50 1   
    40    22    23 ar  
    41    22    51 1   
    42    23    24 ar  
    43    23    52 1   
    44    24    25 1   
    45    24    26 ar  
    46    26    53 1   
    47    27    28 1   
    48    27    54 1   
    49    27    55 1   
    50    28    56 1   
    51    28    57 1   
    52    28    58 1   
    53    29    59 1   
    54    29    60 1   
    55    29    61 1   
    56    30    31 ar  
    57    30    35 ar  
    58    30    38 1   
    59    31    32 ar  
    60    31    68 1   
    61    32    33 ar  
    62    32    69 1   
    63    33    34 ar  
    64    33    62 1   
    65    34    35 ar  
    66    36    37 1   
    67    36    38 1   
    68    36    63 1   
    69    36    64 1   
    70    37    38 1   
    71    37    65 1   
    72    37    66 1   
    73    38    67 1   
@<TRIPOS>SUBSTRUCTURE
     1 35S         1 TEMP              0 ****  ****    0 ROOT
