@<TRIPOS>MOLECULE
35T
   72    76     1     0     0
SMALL
abcg2


@<TRIPOS>ATOM
      1 C17         -3.4640     0.9890     1.7250 ca         1 35T      -0.096000
      2 C16         -4.1410     0.7180     2.9050 ca         1 35T       0.117000
      3 CL2         -5.8770     0.7390     2.9050 cl         1 35T      -0.227000
      4 C15         -3.4650     0.4280     4.0770 ca         1 35T      -0.117000
      5 C14         -2.0760     0.4090     4.0510 ca         1 35T      -0.108000
      6 C13         -1.3860     0.6780     2.8800 ca         1 35T      -0.096000
      7 C6          -2.0750     0.9740     1.7040 ca         1 35T      -0.058300
      8 C19         -1.3400     1.2800     0.4220 c6         1 35T      -0.023400
      9 C22         -0.4790     2.5270     0.5350 c6         1 35T      -0.074400
     10 C4           0.2810     2.8030    -0.7630 c6         1 35T      -0.089000
     11 C21         -0.6970     3.1400    -1.9150 c3         1 35T      -0.201400
     12 C23         -0.0550     3.1100    -3.3120 c          1 35T       0.719000
     13 O3           0.4130     4.1750    -3.7610 o          1 35T      -0.733000
     14 O2          -0.0590     2.0020    -3.8900 o          1 35T      -0.733000
     15 C24          1.2110     3.9950    -0.5290 c3         1 35T      -0.070100
     16 C5           1.1370     1.5910    -1.1150 c          1 35T       0.606000
     17 O1           2.2050     1.7370    -1.6910 o          1 35T      -0.554000
     18 N1           0.7160     0.3590    -0.7350 n          1 35T      -0.421800
     19 C18          1.6140    -0.7890    -0.9100 c3         1 35T       0.195700
     20 C20          2.9470    -0.6300    -0.1670 c3         1 35T      -0.343400
     21 C29         -0.5220     0.0480    -0.0260 c6         1 35T       0.181000
     22 C7          -1.4220    -0.8570    -0.8380 ca         1 35T      -0.112300
     23 C8          -2.0880    -1.9070    -0.2200 ca         1 35T      -0.082500
     24 C9          -2.9790    -2.7050    -0.9250 ca         1 35T      -0.117500
     25 C10         -3.1970    -2.4370    -2.2650 ca         1 35T       0.116000
     26 CL1         -4.3020    -3.4280    -3.1660 cl         1 35T      -0.238000
     27 C11         -2.5400    -1.3950    -2.9060 ca         1 35T      -0.117500
     28 C12         -1.6530    -0.6100    -2.1890 ca         1 35T      -0.082500
     29 S1           2.7610    -0.2770     1.5830 s6         1 35T       1.200100
     30 O4           2.4550     1.1360     1.7620 o          1 35T      -0.541000
     31 O5           1.8550    -1.2780     2.1390 o          1 35T      -0.541000
     32 N2           4.2280    -0.5260     2.2540 n3         1 35T      -0.770500
     33 C25          5.2940     0.4740     2.0740 c5         1 35T       0.214800
     34 C26          6.5480    -0.3040     2.4540 c5         1 35T      -0.092900
     35 C27          6.2350    -1.7230     1.9940 c5         1 35T      -0.092900
     36 C28          4.7690    -1.8920     2.3690 c5         1 35T       0.214800
     37 C1           2.4330    -2.5210    -2.6540 cx         1 35T      -0.137400
     38 C2           1.8730    -1.1620    -2.3530 cx         1 35T      -0.109700
     39 C3           1.0220    -2.1890    -3.0290 cx         1 35T      -0.137400
     40 H1          -4.0150     1.2050     0.8180 ha         1 35T       0.133000
     41 H2          -4.0040     0.2160     4.9900 ha         1 35T       0.117000
     42 H3          -1.5320     0.1780     4.9580 ha         1 35T       0.112000
     43 H4          -0.3030     0.6450     2.8840 ha         1 35T       0.134000
     44 H5          -2.0990     1.4700    -0.3370 hc         1 35T       0.076700
     45 H6          -1.1180     3.3820     0.7730 hc         1 35T       0.052200
     46 H7           0.2360     2.4240     1.3540 hc         1 35T       0.052200
     47 H8          -1.5370     2.4430    -1.9200 hc         1 35T       0.023700
     48 H9          -1.1080     4.1300    -1.6970 hc         1 35T       0.023700
     49 H11          1.9610     3.7710     0.2320 hc         1 35T       0.040700
     50 H12          1.7200     4.3000    -1.4400 hc         1 35T       0.040700
     51 H13          0.6230     4.8430    -0.1740 hc         1 35T       0.040700
     52 H14          1.1030    -1.6390    -0.4510 h1         1 35T       0.051700
     53 H15          3.4930    -1.5730    -0.2310 h1         1 35T       0.102700
     54 H16          3.5670     0.1540    -0.5970 h1         1 35T       0.102700
     55 H17         -0.2240    -0.4960     0.8740 h1         1 35T       0.052700
     56 H18         -1.9150    -2.1140     0.8300 ha         1 35T       0.154500
     57 H19         -3.4880    -3.5230    -0.4340 ha         1 35T       0.125000
     58 H20         -2.7130    -1.2030    -3.9560 ha         1 35T       0.125000
     59 H21         -1.1170     0.1840    -2.6990 ha         1 35T       0.154500
     60 H22          5.3590     0.8220     1.0380 h1         1 35T       0.059200
     61 H23          5.1270     1.3380     2.7150 h1         1 35T       0.059200
     62 H24          7.4390     0.1140     1.9880 hc         1 35T       0.051950
     63 H25          6.6920    -0.2790     3.5370 hc         1 35T       0.051950
     64 H26          6.3560    -1.8060     0.9120 hc         1 35T       0.051950
     65 H27          6.8670    -2.4780     2.4610 hc         1 35T       0.051950
     66 H28          4.6530    -2.2460     3.3950 h1         1 35T       0.059200
     67 H29          4.2530    -2.6000     1.7190 h1         1 35T       0.059200
     68 H30          3.1800    -2.6000    -3.4330 hc         1 35T       0.065450
     69 H31          2.5800    -3.2120    -1.8310 hc         1 35T       0.065450
     70 H32          2.2350    -0.3530    -2.9730 hc         1 35T       0.129700
     71 H33          0.7740    -2.0370    -4.0710 hc         1 35T       0.065450
     72 H34          0.2320    -2.6520    -2.4510 hc         1 35T       0.065450
@<TRIPOS>BOND
     1     1     2 ar  
     2     1     7 ar  
     3     1    40 1   
     4     2     3 1   
     5     2     4 ar  
     6     4     5 ar  
     7     4    41 1   
     8     5     6 ar  
     9     5    42 1   
    10     6     7 ar  
    11     6    43 1   
    12     7     8 1   
    13     8     9 1   
    14     8    21 1   
    15     8    44 1   
    16     9    10 1   
    17     9    45 1   
    18     9    46 1   
    19    10    11 1   
    20    10    15 1   
    21    10    16 1   
    22    11    12 1   
    23    11    47 1   
    24    11    48 1   
    25    12    13 1   
    26    12    14 1   
    27    15    49 1   
    28    15    50 1   
    29    15    51 1   
    30    16    17 2   
    31    16    18 1   
    32    18    19 1   
    33    18    21 1   
    34    19    20 1   
    35    19    38 1   
    36    19    52 1   
    37    20    29 1   
    38    20    53 1   
    39    20    54 1   
    40    21    22 1   
    41    21    55 1   
    42    22    23 ar  
    43    22    28 ar  
    44    23    24 ar  
    45    23    56 1   
    46    24    25 ar  
    47    24    57 1   
    48    25    26 1   
    49    25    27 ar  
    50    27    28 ar  
    51    27    58 1   
    52    28    59 1   
    53    29    30 2   
    54    29    31 2   
    55    29    32 1   
    56    32    33 1   
    57    32    36 1   
    58    33    34 1   
    59    33    60 1   
    60    33    61 1   
    61    34    35 1   
    62    34    62 1   
    63    34    63 1   
    64    35    36 1   
    65    35    64 1   
    66    35    65 1   
    67    36    66 1   
    68    36    67 1   
    69    37    38 1   
    70    37    39 1   
    71    37    68 1   
    72    37    69 1   
    73    38    39 1   
    74    38    70 1   
    75    39    71 1   
    76    39    72 1   
@<TRIPOS>SUBSTRUCTURE
     1 35T         1 TEMP              0 ****  ****    0 ROOT
