@<TRIPOS>MOLECULE
35T
   72    76     1     0     0
SMALL
No Charge or Current Charge


@<TRIPOS>ATOM
      1 C17         -3.6490     0.9830     1.4310 ca         1 35T      -0.096000
      2 C16         -4.4650     0.7190     2.5420 ca         1 35T       0.117000
      3 Cl2         -6.1980     0.5060     2.3250 cl         1 35T      -0.227000
      4 C15         -3.9040     0.6210     3.8250 ca         1 35T      -0.117000
      5 C14         -2.5200     0.7830     3.9960 ca         1 35T      -0.108000
      6 C13         -1.6990     1.0460     2.8850 ca         1 35T      -0.096000
      7 C6          -2.2580     1.1540     1.5930 ca         1 35T      -0.058300
      8 C19         -1.3710     1.4160     0.3640 c6         1 35T      -0.023400
      9 C22         -0.5030     2.6770     0.5210 c6         1 35T      -0.074400
     10 C4           0.3180     2.9820    -0.7660 c6         1 35T      -0.089000
     11 C21         -0.6540     3.3990    -1.9480 c3         1 35T      -0.201400
     12 C23          0.0280     4.0540    -3.1710 c          1 35T       0.719000
     13 O3           0.1450     5.2700    -3.1890 o          1 35T      -0.733000
     14 O2           0.3830     3.3310    -4.0890 o          1 35T      -0.733000
     15 C24          1.2950     4.1640    -0.4480 c3         1 35T      -0.070100
     16 C5           1.1390     1.7230    -1.2050 c          1 35T       0.606000
     17 O1           2.1440     1.8710    -1.8910 o          1 35T      -0.554000
     18 N1           0.7400     0.4250    -0.7650 n          1 35T      -0.421800
     19 C18          1.6090    -0.7620    -1.0240 c3         1 35T       0.195700
     20 C20          2.9620    -0.6980    -0.2860 c3         1 35T      -0.343400
     21 C29         -0.4960     0.1740     0.0430 c6         1 35T       0.181000
     22 C7          -1.3730    -0.9340    -0.5610 ca         1 35T      -0.112300
     23 C8          -1.6240    -2.1120     0.1730 ca         1 35T      -0.082500
     24 C9          -2.4370    -3.1230    -0.3690 ca         1 35T      -0.117500
     25 C10         -3.0030    -2.9620    -1.6430 ca         1 35T       0.116000
     26 Cl1         -4.0180    -4.2290    -2.3180 cl         1 35T      -0.238000
     27 C11         -2.7600    -1.7920    -2.3790 ca         1 35T      -0.117500
     28 C12         -1.9460    -0.7800    -1.8410 ca         1 35T      -0.082500
     29 S1           2.7980    -0.6470     1.4970 s6         1 35T       1.200100
     30 O4           2.3580     0.6830     1.9290 o          1 35T      -0.541000
     31 O5           2.0550    -1.8310     1.9400 o          1 35T      -0.541000
     32 N2           4.3970    -0.8370     2.0860 n3         1 35T      -0.770500
     33 C25          5.4530     0.0510     1.5770 c5         1 35T       0.214800
     34 C26          6.6190    -0.3710     2.4970 c5         1 35T      -0.092900
     35 C27          6.4640    -1.9210     2.5530 c5         1 35T      -0.092900
     36 C28          5.0110    -2.1790     2.0570 c5         1 35T       0.214800
     37 C1           2.2590    -2.4810    -2.9300 cx         1 35T      -0.137400
     38 C2           1.7830    -1.1080    -2.5080 cx         1 35T      -0.109700
     39 C3           0.8390    -2.0570    -3.2130 cx         1 35T      -0.137400
     40 H1          -4.1000     1.0470     0.4450 ha         1 35T       0.133000
     41 H2          -4.5400     0.4160     4.6830 ha         1 35T       0.117000
     42 H3          -2.0810     0.7020     4.9880 ha         1 35T       0.112000
     43 H4          -0.6270     1.1570     3.0340 ha         1 35T       0.134000
     44 H5          -2.0450     1.5900    -0.4830 hc         1 35T       0.076700
     45 H6          -1.1380     3.5360     0.7810 hc         1 35T       0.052200
     46 H7           0.1870     2.5440     1.3650 hc         1 35T       0.052200
     47 H8          -1.1470     2.4830    -2.2910 hc         1 35T       0.023700
     48 H9          -1.3550     4.1280    -1.5230 hc         1 35T       0.023700
     49 H11          1.9600     3.9110     0.3880 hc         1 35T       0.040700
     50 H12          1.9400     4.4200    -1.2960 hc         1 35T       0.040700
     51 H13          0.7460     5.0710    -0.1660 hc         1 35T       0.040700
     52 H14          1.0990    -1.6330    -0.5910 h1         1 35T       0.051700
     53 H15          3.5450    -1.5980    -0.5010 h1         1 35T       0.102700
     54 H16          3.5370     0.1840    -0.5790 h1         1 35T       0.102700
     55 H17         -0.1360    -0.1960     1.0120 h1         1 35T       0.052700
     56 H18         -1.1930    -2.2440     1.1640 ha         1 35T       0.154500
     57 H19         -2.6280    -4.0300     0.1990 ha         1 35T       0.125000
     58 H20         -3.1970    -1.6720    -3.3670 ha         1 35T       0.125000
     59 H21         -1.7530     0.1180    -2.4250 ha         1 35T       0.154500
     60 H22          5.6820    -0.1400     0.5180 h1         1 35T       0.059200
     61 H23          5.2060     1.1160     1.6920 h1         1 35T       0.059200
     62 H24          7.5930    -0.0550     2.1080 hc         1 35T       0.051950
     63 H25          6.5040     0.0710     3.4930 hc         1 35T       0.051950
     64 H26          7.1920    -2.4280     1.9090 hc         1 35T       0.051950
     65 H27          6.6170    -2.2970     3.5710 hc         1 35T       0.051950
     66 H28          4.4810    -2.8940     2.7020 h1         1 35T       0.059200
     67 H29          5.0200    -2.5930     1.0380 h1         1 35T       0.059200
     68 H30          2.9480    -2.5420    -3.7690 hc         1 35T       0.065450
     69 H31          2.4160    -3.2300    -2.1570 hc         1 35T       0.065450
     70 H32          2.1770    -0.2840    -3.0960 hc         1 35T       0.129700
     71 H33          0.5690    -1.8290    -4.2420 hc         1 35T       0.065450
     72 H34          0.0580    -2.5440    -2.6350 hc         1 35T       0.065450
@<TRIPOS>BOND
     1     1     2 ar  
     2     1     7 ar  
     3     1    40 1   
     4     2     3 1   
     5     2     4 ar  
     6     4     5 ar  
     7     4    41 1   
     8     5     6 ar  
     9     5    42 1   
    10     6     7 ar  
    11     6    43 1   
    12     7     8 1   
    13     8     9 1   
    14     8    21 1   
    15     8    44 1   
    16     9    10 1   
    17     9    45 1   
    18     9    46 1   
    19    10    11 1   
    20    10    15 1   
    21    10    16 1   
    22    11    12 1   
    23    11    47 1   
    24    11    48 1   
    25    12    13 1   
    26    12    14 1   
    27    15    49 1   
    28    15    50 1   
    29    15    51 1   
    30    16    17 2   
    31    16    18 1   
    32    18    19 1   
    33    18    21 1   
    34    19    20 1   
    35    19    38 1   
    36    19    52 1   
    37    20    29 1   
    38    20    53 1   
    39    20    54 1   
    40    21    22 1   
    41    21    55 1   
    42    22    23 ar  
    43    22    28 ar  
    44    23    24 ar  
    45    23    56 1   
    46    24    25 ar  
    47    24    57 1   
    48    25    26 1   
    49    25    27 ar  
    50    27    28 ar  
    51    27    58 1   
    52    28    59 1   
    53    29    30 2   
    54    29    31 2   
    55    29    32 1   
    56    32    33 1   
    57    32    36 1   
    58    33    34 1   
    59    33    60 1   
    60    33    61 1   
    61    34    35 1   
    62    34    62 1   
    63    34    63 1   
    64    35    36 1   
    65    35    64 1   
    66    35    65 1   
    67    36    66 1   
    68    36    67 1   
    69    37    38 1   
    70    37    39 1   
    71    37    68 1   
    72    37    69 1   
    73    38    39 1   
    74    38    70 1   
    75    39    71 1   
    76    39    72 1   
@<TRIPOS>SUBSTRUCTURE
     1 35T         1 TEMP              0 ****  ****    0 ROOT
