@<TRIPOS>MOLECULE
35V
   51    52     1     0     0
SMALL
No Charge or Current Charge


@<TRIPOS>ATOM
      1 CAJ         -6.5500    -0.7790    -0.1320 ca         1 35V      -0.117000
      2 CAU         -7.6470    -0.3500     0.6310 ca         1 35V       0.125100
      3 OAC         -8.7050    -1.1840     0.8430 oh         1 35V      -0.534100
      4 CAT         -7.6650     0.9460     1.1840 ca         1 35V       0.046100
      5 OAB         -8.7390     1.3610     1.9280 oh         1 35V      -0.557100
      6 CAF         -6.5810     1.8110     0.9660 ca         1 35V      -0.158000
      7 CAH         -5.4800     1.3820     0.2020 ca         1 35V      -0.100000
      8 CAW         -5.4520     0.0810    -0.3510 ca         1 35V      -0.106300
      9 CAZ         -4.2650    -0.4020    -1.1880 c3         1 35V       0.215600
     10 OAD         -4.2910     0.2500    -2.4700 oh         1 35V      -0.648000
     11 CAP         -2.8890    -0.1730    -0.4910 c3         1 35V       0.126800
     12 NAQ         -1.7690    -0.7360    -1.2840 n7         1 35V      -0.861400
     13 CAM         -0.4200    -0.4490    -0.7610 c3         1 35V       0.159800
     14 CAO          0.6600    -1.0950    -1.6530 c3         1 35V      -0.030100
     15 CAV          2.0670    -0.8190    -1.1380 ca         1 35V      -0.077300
     16 CAK          2.6280    -1.6390    -0.1410 ca         1 35V      -0.167000
     17 CAY          3.9320    -1.3850     0.3460 ca         1 35V       0.113100
     18 OAR          4.5110    -2.1750     1.3270 os         1 35V      -0.323100
     19 CAA          3.8320    -3.2990     1.9150 c3         1 35V       0.144900
     20 CAG          2.8090     0.2600    -1.6480 ca         1 35V      -0.106000
     21 CAI          4.1050     0.5220    -1.1730 ca         1 35V      -0.167000
     22 CAX          4.6750    -0.2980    -0.1730 ca         1 35V       0.112100
     23 OAS          5.9500    -0.0690     0.3190 os         1 35V      -0.331100
     24 CAN          6.7770     1.0110    -0.1490 c3         1 35V       0.169600
     25 CAL          8.1100     0.9500     0.6190 c3         1 35V       0.077600
     26 SAE          9.3150     2.2820     0.1410 sh         1 35V      -0.453800
     27 H1          -6.5540    -1.7820    -0.5530 ha         1 35V       0.133000
     28 H2          -9.3410    -0.6740     1.3940 ho         1 35V       0.482000
     29 H3          -8.5790     2.2840     2.2280 ho         1 35V       0.475000
     30 H4          -6.5820     2.8150     1.3840 ha         1 35V       0.113000
     31 H5          -4.6520     2.0680     0.0400 ha         1 35V       0.114000
     32 H6          -4.3670    -1.4880    -1.3280 h1         1 35V       0.096700
     33 H7          -4.4650     1.1990    -2.2940 ho         1 35V       0.434000
     34 H8          -2.7370     0.9050    -0.3440 h1         1 35V       0.037200
     35 H9          -2.9170    -0.6370     0.5040 h1         1 35V       0.037200
     36 H10         -1.8410    -0.3440    -2.2320 hn         1 35V       0.413000
     37 H12         -0.2470     0.6360    -0.7240 h1         1 35V       0.032700
     38 H13         -0.3160    -0.8390     0.2610 h1         1 35V       0.032700
     39 H14          0.4840    -2.1770    -1.7010 hc         1 35V       0.054200
     40 H15          0.5520    -0.7210    -2.6780 hc         1 35V       0.054200
     41 H16          2.0390    -2.4650     0.2440 ha         1 35V       0.121000
     42 H17          3.5840    -4.0480     1.1520 h1         1 35V       0.040033
     43 H18          4.4730    -3.7780     2.6660 h1         1 35V       0.040033
     44 H19          2.9070    -2.9800     2.4120 h1         1 35V       0.040033
     45 H20          2.3810     0.9010    -2.4160 ha         1 35V       0.113000
     46 H21          4.6480     1.3650    -1.5920 ha         1 35V       0.120000
     47 H22          6.9730     0.9140    -1.2250 h1         1 35V       0.047200
     48 H23          6.2950     1.9800     0.0360 h1         1 35V       0.047200
     49 H24          7.9070     1.0360     1.6940 h1         1 35V       0.075200
     50 H25          8.5820    -0.0250     0.4390 h1         1 35V       0.075200
     51 H26         10.3020     1.9030     0.9920 hs         1 35V       0.219800
@<TRIPOS>BOND
     1     1     2 ar  
     2     1     8 ar  
     3     1    27 1   
     4     2     3 1   
     5     2     4 ar  
     6     3    28 1   
     7     4     5 1   
     8     4     6 ar  
     9     5    29 1   
    10     6     7 ar  
    11     6    30 1   
    12     7     8 ar  
    13     7    31 1   
    14     8     9 1   
    15     9    10 1   
    16     9    11 1   
    17     9    32 1   
    18    10    33 1   
    19    11    12 1   
    20    11    34 1   
    21    11    35 1   
    22    12    13 1   
    23    12    36 1   
    24    13    14 1   
    25    13    37 1   
    26    13    38 1   
    27    14    15 1   
    28    14    39 1   
    29    14    40 1   
    30    15    16 ar  
    31    15    20 ar  
    32    16    17 ar  
    33    16    41 1   
    34    17    18 1   
    35    17    22 ar  
    36    18    19 1   
    37    19    42 1   
    38    19    43 1   
    39    19    44 1   
    40    20    21 ar  
    41    20    45 1   
    42    21    22 ar  
    43    21    46 1   
    44    22    23 1   
    45    23    24 1   
    46    24    25 1   
    47    24    47 1   
    48    24    48 1   
    49    25    26 1   
    50    25    49 1   
    51    25    50 1   
    52    26    51 1   
@<TRIPOS>SUBSTRUCTURE
     1 35V         1 TEMP              0 ****  ****    0 ROOT
