@<TRIPOS>MOLECULE
35V
   51    52     1     0     0
SMALL
abcg2


@<TRIPOS>ATOM
      1 CAJ         -5.5150    -0.6240     0.7230 ca         1 35V      -0.117000
      2 CAU         -6.4410    -0.1880     1.6550 ca         1 35V       0.125100
      3 OAC         -6.6340    -0.9120     2.7770 oh         1 35V      -0.534100
      4 CAT         -7.1590     0.9910     1.4100 ca         1 35V       0.046100
      5 OAB         -8.0480     1.3590     2.3630 oh         1 35V      -0.557100
      6 CAF         -6.9350     1.6930     0.2400 ca         1 35V      -0.158000
      7 CAH         -6.0020     1.2440    -0.6900 ca         1 35V      -0.100000
      8 CAW         -5.2800     0.0850    -0.4550 ca         1 35V      -0.106300
      9 CAZ         -4.2090    -0.4140    -1.4020 c3         1 35V       0.215600
     10 OAD         -4.4200    -0.0220    -2.7400 oh         1 35V      -0.648000
     11 CAP         -2.8290     0.0060    -0.9050 c3         1 35V       0.126800
     12 NAQ         -1.7720    -0.6090    -1.6780 n7         1 35V      -0.861400
     13 CAM         -0.4530    -0.2790    -1.1770 c3         1 35V       0.159800
     14 CAO          0.6430    -0.9410    -2.0090 c3         1 35V      -0.030100
     15 CAV          1.9960    -0.7380    -1.3880 ca         1 35V      -0.077300
     16 CAK          2.4670    -1.6570    -0.4450 ca         1 35V      -0.167000
     17 CAY          3.6790    -1.4740     0.1990 ca         1 35V       0.113100
     18 OAR          4.2000    -2.3130     1.1140 os         1 35V      -0.323100
     19 CAA          3.4770    -3.4850     1.4290 c3         1 35V       0.144900
     20 CAG          2.7710     0.3710    -1.6740 ca         1 35V      -0.106000
     21 CAI          3.9940     0.5730    -1.0340 ca         1 35V      -0.167000
     22 CAX          4.4560    -0.3360    -0.0980 ca         1 35V       0.112100
     23 OAS          5.6200    -0.2320     0.5790 os         1 35V      -0.331100
     24 CAN          6.4250     0.9070     0.3560 c3         1 35V       0.169600
     25 CAL          7.6250     0.7800     1.2730 c3         1 35V       0.077600
     26 SAE          8.6790     2.2480     1.0270 sh         1 35V      -0.453800
     27 H1          -4.9700    -1.5390     0.9260 ha         1 35V       0.133000
     28 H2          -7.2750    -0.4780     3.3520 ho         1 35V       0.482000
     29 H3          -8.4470     2.2090     2.1480 ho         1 35V       0.475000
     30 H4          -7.4930     2.6020     0.0450 ha         1 35V       0.113000
     31 H5          -5.8640     1.8200    -1.5960 ha         1 35V       0.114000
     32 H6          -4.2390    -1.5080    -1.4130 h1         1 35V       0.096700
     33 H7          -4.2190     0.9160    -2.8320 ho         1 35V       0.434000
     34 H8          -2.7750     1.1100    -0.8920 h1         1 35V       0.037200
     35 H9          -2.7220    -0.3110     0.1360 h1         1 35V       0.037200
     36 H10         -1.8450    -0.3060    -2.6420 hn         1 35V       0.413000
     37 H12         -0.2690     0.8060    -1.1370 h1         1 35V       0.032700
     38 H13         -0.3790    -0.6370    -0.1450 h1         1 35V       0.032700
     39 H14          0.4250    -2.0090    -2.0920 hc         1 35V       0.054200
     40 H15          0.6280    -0.5330    -3.0230 hc         1 35V       0.054200
     41 H16          1.8590    -2.5260    -0.2240 ha         1 35V       0.121000
     42 H17          3.3440    -4.1300     0.5560 h1         1 35V       0.040033
     43 H18          4.0630    -4.0190     2.1730 h1         1 35V       0.040033
     44 H19          2.4940    -3.2590     1.8510 h1         1 35V       0.040033
     45 H20          2.4330     1.1000    -2.4010 ha         1 35V       0.113000
     46 H21          4.5750     1.4520    -1.2840 ha         1 35V       0.120000
     47 H22          6.7480     0.9570    -0.6900 h1         1 35V       0.047200
     48 H23          5.8700     1.8250     0.5810 h1         1 35V       0.047200
     49 H24          7.3020     0.7300     2.3120 h1         1 35V       0.075200
     50 H25          8.1920    -0.1190     1.0340 h1         1 35V       0.075200
     51 H26          9.6740     1.8670     1.8340 hs         1 35V       0.219800
@<TRIPOS>BOND
     1     1     2 ar  
     2     1     8 ar  
     3     1    27 1   
     4     2     3 1   
     5     2     4 ar  
     6     3    28 1   
     7     4     5 1   
     8     4     6 ar  
     9     5    29 1   
    10     6     7 ar  
    11     6    30 1   
    12     7     8 ar  
    13     7    31 1   
    14     8     9 1   
    15     9    10 1   
    16     9    11 1   
    17     9    32 1   
    18    10    33 1   
    19    11    12 1   
    20    11    34 1   
    21    11    35 1   
    22    12    13 1   
    23    12    36 1   
    24    13    14 1   
    25    13    37 1   
    26    13    38 1   
    27    14    15 1   
    28    14    39 1   
    29    14    40 1   
    30    15    16 ar  
    31    15    20 ar  
    32    16    17 ar  
    33    16    41 1   
    34    17    18 1   
    35    17    22 ar  
    36    18    19 1   
    37    19    42 1   
    38    19    43 1   
    39    19    44 1   
    40    20    21 ar  
    41    20    45 1   
    42    21    22 ar  
    43    21    46 1   
    44    22    23 1   
    45    23    24 1   
    46    24    25 1   
    47    24    47 1   
    48    24    48 1   
    49    25    26 1   
    50    25    49 1   
    51    25    50 1   
    52    26    51 1   
@<TRIPOS>SUBSTRUCTURE
     1 35V         1 TEMP              0 ****  ****    0 ROOT
