@<TRIPOS>MOLECULE
35W
   43    47     1     0     0
SMALL
No Charge or Current Charge


@<TRIPOS>ATOM
      1 C4           5.0930    -0.6400    -0.5020 ca         1 35W      -0.116300
      2 C5           4.9610     0.0300     0.7340 ca         1 35W      -0.083000
      3 C6           5.8140    -0.2840     1.8060 ca         1 35W      -0.113000
      4 C7           4.1800    -0.3060    -1.6840 c3         1 35W       0.138900
      5 C10          0.8530     0.8310    -0.8230 cc         1 35W      -0.136800
      6 N12          1.8950    -1.1670    -1.1590 nd         1 35W      -0.522800
      7 C13         -0.1900     1.7770    -0.5280 cc         1 35W      -0.126000
      8 C17         -2.1610     2.8000     0.0010 ca         1 35W       0.328500
      9 C20         -3.5330     0.4560     0.2520 cp         1 35W       0.319500
     10 C21         -4.1430     1.7490     0.4560 ca         1 35W       0.324900
     11 C24         -3.6300    -2.1060     0.3810 ca         1 35W      -0.143000
     12 C28         -5.7010    -0.9020     0.5380 ca         1 35W      -0.143000
     13 C1           6.8070    -1.2650     1.6530 ca         1 35W      -0.096000
     14 C2           6.9490    -1.9310     0.4250 ca         1 35W      -0.113000
     15 C3           6.0970    -1.6180    -0.6490 ca         1 35W      -0.083000
     16 N8           2.7640    -0.0910    -1.3280 na         1 35W       0.134800
     17 C9           2.1410     1.1480    -1.1310 cd         1 35W      -0.170000
     18 C11          0.7580    -0.5710    -0.8540 cc         1 35W       0.267900
     19 C14          0.0110     3.1520    -0.5250 cd         1 35W      -0.152100
     20 N15         -1.2140     3.7920    -0.1960 na         1 35W      -0.316400
     21 C18         -1.5710     1.5540    -0.1930 ca         1 35W       0.315800
     22 N19         -2.2120     0.3670    -0.0780 nb         1 35W      -0.591000
     23 N22         -3.4660     2.9320     0.3330 nb         1 35W      -0.647000
     24 C23         -4.2880    -0.8450     0.3920 cp         1 35W      -0.094500
     25 C25         -4.3630    -3.2980     0.5130 ca         1 35W       0.328900
     26 N26         -5.7070    -3.3240     0.6540 nb         1 35W      -0.660000
     27 C27         -6.3560    -2.1400     0.6640 ca         1 35W       0.328900
     28 H1           4.2010     0.7960     0.8680 ha         1 35W       0.114000
     29 H2           5.7050     0.2350     2.7560 ha         1 35W       0.115000
     30 H3           4.5520     0.6020    -2.1740 h1         1 35W       0.067200
     31 H4           4.2240    -1.1150    -2.4240 h1         1 35W       0.067200
     32 H5          -5.1910     1.8390     0.7320 h4         1 35W       0.031100
     33 H7          -6.3080    -0.0020     0.5490 ha         1 35W       0.130500
     34 H8           7.4670    -1.5060     2.4840 ha         1 35W       0.114000
     35 H9           7.7200    -2.6890     0.3040 ha         1 35W       0.115000
     36 H10          6.2190    -2.1400    -1.5960 ha         1 35W       0.114000
     37 H11          2.6540     2.0980    -1.2210 h4         1 35W       0.147000
     38 H12         -0.1130    -1.1820    -0.6630 h4         1 35W       0.053100
     39 H13          0.9180     3.7170    -0.7290 h4         1 35W       0.217000
     40 H14         -1.3830     4.7880    -0.1160 hn         1 35W       0.366000
     41 H15         -3.8570    -4.2620     0.5070 h4         1 35W       0.019100
     42 H16         -7.4390    -2.1830     0.7740 h4         1 35W       0.019100
     43 H6          -2.5510    -2.1740     0.2760 ha         1 35W       0.130500
@<TRIPOS>BOND
     1     1     2 ar  
     2     1     4 1   
     3     1    15 ar  
     4     2     3 ar  
     5     2    28 1   
     6     3    13 ar  
     7     3    29 1   
     8     4    16 1   
     9     4    30 1   
    10     4    31 1   
    11     5     7 1   
    12     5    17 2   
    13     5    18 1   
    14     6    16 1   
    15     6    18 2   
    16     7    19 2   
    17     7    21 1   
    18     8    20 1   
    19     8    21 ar  
    20     8    23 ar  
    21     9    10 ar  
    22     9    22 ar  
    23     9    24 1   
    24    10    23 ar  
    25    10    32 1   
    26    11    24 ar  
    27    11    25 ar  
    28    11    43 1   
    29    12    24 ar  
    30    12    27 ar  
    31    12    33 1   
    32    13    14 ar  
    33    13    34 1   
    34    14    15 ar  
    35    14    35 1   
    36    15    36 1   
    37    16    17 1   
    38    17    37 1   
    39    18    38 1   
    40    19    20 1   
    41    19    39 1   
    42    20    40 1   
    43    21    22 ar  
    44    25    26 ar  
    45    25    41 1   
    46    26    27 ar  
    47    27    42 1   
@<TRIPOS>SUBSTRUCTURE
     1 35W         1 TEMP              0 ****  ****    0 ROOT
