@<TRIPOS>MOLECULE
35W
   43    47     1     0     0
SMALL
bcc


@<TRIPOS>ATOM
      1 C4           5.0160    -0.5550    -0.5640 ca         1 35W      -0.116300
      2 C5           5.4520     0.3460     0.4030 ca         1 35W      -0.101000
      3 C6           6.1580    -0.0970     1.5120 ca         1 35W      -0.131000
      4 C7           4.2220    -0.0730    -1.7490 c3         1 35W       0.109600
      5 C10          0.8980     0.9730    -0.8200 cc         1 35W      -0.202100
      6 N12          2.0440    -0.9350    -1.2010 nd         1 35W      -0.522800
      7 C13         -0.1840     1.8780    -0.4870 cc         1 35W      -0.126000
      8 C17         -2.2360     2.7280     0.1030 ca         1 35W       0.328500
      9 C20         -3.4210     0.3800     0.2800 cp         1 35W       0.319500
     10 C21         -4.0900     1.5910     0.5380 ca         1 35W       0.324900
     11 C24         -3.3890    -2.0990     0.5410 ca         1 35W      -0.226300
     12 C28         -5.5020    -1.0310     0.3290 ca         1 35W      -0.226300
     13 C1           6.4360    -1.4500     1.6630 ca         1 35W      -0.114000
     14 C2           6.0070    -2.3540     0.7020 ca         1 35W      -0.131000
     15 C3           5.2980    -1.9070    -0.4060 ca         1 35W      -0.101000
     16 N8           2.8240     0.1160    -1.4150 na         1 35W       0.113400
     17 C9           2.1920     1.2820    -1.1960 cd         1 35W      -0.137300
     18 C11          0.8750    -0.4370    -0.8450 cc         1 35W       0.333200
     19 C14         -0.1510     3.2480    -0.4260 cd         1 35W      -0.102100
     20 N15         -1.3730     3.7540    -0.0740 na         1 35W      -0.266100
     21 C18         -1.5280     1.5240    -0.1480 ca         1 35W       0.315800
     22 N19         -2.1360     0.3530    -0.0550 nb         1 35W      -0.591000
     23 N22         -3.5040     2.7760     0.4510 nb         1 35W      -0.647000
     24 C23         -4.1150    -0.9180     0.3870 cp         1 35W      -0.094500
     25 C25         -4.0680    -3.3010     0.6390 ca         1 35W       0.394200
     26 N26         -5.3920    -3.4080     0.5930 nb         1 35W      -0.660000
     27 C27         -6.0830    -2.2850     0.4390 ca         1 35W       0.394200
     28 H1           5.2410     1.4040     0.2890 ha         1 35W       0.132000
     29 H2           6.4950     0.6130     2.2560 ha         1 35W       0.133000
     30 H3           4.6010     0.8840    -2.1070 h1         1 35W       0.067200
     31 H4           4.2830    -0.7810    -2.5750 h1         1 35W       0.067200
     32 H5          -5.1290     1.5940     0.8420 h4         1 35W       0.031100
     33 H7          -6.1410    -0.1710     0.1840 ha         1 35W       0.148500
     34 H8           6.9880    -1.7970     2.5270 ha         1 35W       0.132000
     35 H9           6.2240    -3.4090     0.8130 ha         1 35W       0.133000
     36 H10          4.9660    -2.6160    -1.1550 ha         1 35W       0.132000
     37 H11          2.6890     2.2300    -1.3290 h4         1 35W       0.165000
     38 H12          0.0440    -1.0880    -0.6220 h4         1 35W       0.053100
     39 H13          0.6730     3.9180    -0.6110 h4         1 35W       0.167000
     40 H14         -1.5910     4.7330     0.0250 hn         1 35W       0.315700
     41 H15         -3.5110    -4.2230     0.7630 h4         1 35W       0.019100
     42 H16         -7.1620    -2.3810     0.3940 h4         1 35W       0.019100
     43 H6          -2.3090    -2.0840     0.5900 ha         1 35W       0.148500
@<TRIPOS>BOND
     1     1     2 ar  
     2     1     4 1   
     3     1    15 ar  
     4     2     3 ar  
     5     2    28 1   
     6     3    13 ar  
     7     3    29 1   
     8     4    16 1   
     9     4    30 1   
    10     4    31 1   
    11     5     7 1   
    12     5    17 2   
    13     5    18 1   
    14     6    16 1   
    15     6    18 2   
    16     7    19 2   
    17     7    21 1   
    18     8    20 1   
    19     8    21 ar  
    20     8    23 ar  
    21     9    10 ar  
    22     9    22 ar  
    23     9    24 1   
    24    10    23 ar  
    25    10    32 1   
    26    11    24 ar  
    27    11    25 ar  
    28    11    43 1   
    29    12    24 ar  
    30    12    27 ar  
    31    12    33 1   
    32    13    14 ar  
    33    13    34 1   
    34    14    15 ar  
    35    14    35 1   
    36    15    36 1   
    37    16    17 1   
    38    17    37 1   
    39    18    38 1   
    40    19    20 1   
    41    19    39 1   
    42    20    40 1   
    43    21    22 ar  
    44    25    26 ar  
    45    25    41 1   
    46    26    27 ar  
    47    27    42 1   
@<TRIPOS>SUBSTRUCTURE
     1 35W         1 TEMP              0 ****  ****    0 ROOT
