@<TRIPOS>MOLECULE
35X
   39    42     1     0     0
SMALL
No Charge or Current Charge


@<TRIPOS>ATOM
      1 C5           3.2590     0.5730    -0.5410 cc         1 35X      -0.169000
      2 C6           1.9160     0.3720    -0.4020 cd         1 35X      -0.138800
      3 C7           1.6660    -1.0150    -0.4730 cd         1 35X       0.268900
      4 C10          1.3670     2.7560    -0.1680 cc         1 35X      -0.153100
      5 C13         -0.9340     2.6490     0.0890 ca         1 35X       0.328500
      6 C17         -3.0640     1.8440     0.2790 ca         1 35X       0.324900
      7 C20         -3.0100    -2.0470     0.1960 ca         1 35X      -0.143500
      8 C21         -3.8920    -3.1410     0.2140 ca         1 35X       0.329400
      9 C24         -4.9250    -0.6000     0.1120 ca         1 35X      -0.143500
     10 C1           7.4280    -1.5550     0.2690 c3         1 35X      -0.090100
     11 C2           5.9460    -1.1770     0.4600 c3         1 35X      -0.096400
     12 N4           3.7540    -0.7210    -0.6900 na         1 35X       0.133800
     13 N8           2.7790    -1.7050    -0.6490 nc         1 35X      -0.528800
     14 C9           0.9540     1.4300    -0.2160 cd         1 35X      -0.126000
     15 N11          0.1680     3.4870     0.0220 na         1 35X      -0.316400
     16 C14         -0.4810     1.3430    -0.0570 ca         1 35X       0.315800
     17 N15         -1.2590     0.2360    -0.0450 nb         1 35X      -0.592000
     18 C16         -2.5910     0.4850     0.1240 cp         1 35X       0.318500
     19 N18         -2.2430     2.9400     0.2640 nb         1 35X      -0.647000
     20 C19         -3.5080    -0.7150     0.1450 cp         1 35X      -0.094500
     21 N22         -5.2360    -3.0050     0.1840 nb         1 35X      -0.659000
     22 C23         -5.7350    -1.7500     0.1330 ca         1 35X       0.329400
     23 H1           3.8800     1.4590    -0.5470 h4         1 35X       0.148000
     24 H2           0.7210    -1.5390    -0.4020 h4         1 35X       0.053100
     25 H3           2.3480     3.2180    -0.2480 h4         1 35X       0.218000
     26 H4          -4.1200     2.0570     0.4280 h4         1 35X       0.031100
     27 H5          -1.9430    -2.2450     0.2260 ha         1 35X       0.130500
     28 H6          -3.5090    -4.1600     0.2550 h4         1 35X       0.019100
     29 H7          -5.4160     0.3660     0.0610 ha         1 35X       0.130500
     30 H8           7.9430    -0.8090    -0.3500 hc         1 35X       0.036700
     31 H9           7.9380    -1.6070     1.2380 hc         1 35X       0.036700
     32 H10          7.5200    -2.5330    -0.2200 hc         1 35X       0.036700
     33 H11          5.4670    -1.9210     1.1080 hc         1 35X       0.057200
     34 H12          5.8860    -0.2130     0.9800 hc         1 35X       0.057200
     35 H13          5.6390    -0.3370    -1.5190 h1         1 35X       0.060700
     36 H14          5.2200    -2.0540    -1.3900 h1         1 35X       0.060700
     37 H15          0.1020     4.4960     0.1030 hn         1 35X       0.367000
     38 H16         -6.8200    -1.6610     0.1050 h4         1 35X       0.019100
     39 C3           5.1690    -1.0880    -0.8720 c3         1 35X       0.086600
@<TRIPOS>BOND
     1     1     2 2   
     2     1    12 1   
     3     1    23 1   
     4     2     3 1   
     5     2    14 1   
     6     3    13 2   
     7     3    24 1   
     8     4    14 2   
     9     4    15 1   
    10     4    25 1   
    11     5    15 1   
    12     5    16 ar  
    13     5    19 ar  
    14     6    18 ar  
    15     6    19 ar  
    16     6    26 1   
    17     7     8 ar  
    18     7    20 ar  
    19     7    27 1   
    20     8    21 ar  
    21     8    28 1   
    22     9    20 ar  
    23     9    22 ar  
    24     9    29 1   
    25    10    11 1   
    26    10    30 1   
    27    10    31 1   
    28    10    32 1   
    29    11    33 1   
    30    11    34 1   
    31    11    39 1   
    32    12    13 1   
    33    12    39 1   
    34    14    16 1   
    35    15    37 1   
    36    16    17 ar  
    37    17    18 ar  
    38    18    20 1   
    39    21    22 ar  
    40    22    38 1   
    41    35    39 1   
    42    36    39 1   
@<TRIPOS>SUBSTRUCTURE
     1 35X         1 TEMP              0 ****  ****    0 ROOT
