@<TRIPOS>MOLECULE
35X
   39    42     1     0     0
SMALL
bcc


@<TRIPOS>ATOM
      1 C5           3.2920     0.6620    -0.5910 cc         1 35X      -0.136300
      2 C6           1.9270     0.5270    -0.4150 cd         1 35X      -0.204100
      3 C7           1.7280    -0.8690    -0.4450 cd         1 35X       0.334200
      4 C10          1.1240     2.9240    -0.2100 cc         1 35X      -0.103100
      5 C13         -1.0590     2.6770     0.0470 ca         1 35X       0.328500
      6 C17         -3.0800     1.7870     0.2590 ca         1 35X       0.324900
      7 C20         -2.8370    -1.9580     0.4430 ca         1 35X      -0.226800
      8 C21         -3.6620    -3.0680     0.4850 ca         1 35X       0.394700
      9 C24         -4.7660    -0.6600    -0.0480 ca         1 35X      -0.226800
     10 C1           7.2550    -1.8550     0.2480 c3         1 35X      -0.090100
     11 C2           5.7920    -1.4840     0.4350 c3         1 35X      -0.096400
     12 N4           3.7980    -0.5760    -0.7130 na         1 35X       0.112400
     13 N8           2.8650    -1.5160    -0.6230 nc         1 35X      -0.528800
     14 C9           0.9310     1.5660    -0.2460 cd         1 35X      -0.126000
     15 N11         -0.0620     3.5860    -0.0360 na         1 35X      -0.266100
     16 C14         -0.4790     1.3890    -0.0810 ca         1 35X       0.315800
     17 N15         -1.2330     0.3030    -0.0410 nb         1 35X      -0.592000
     18 C16         -2.5380     0.4950     0.1220 cp         1 35X       0.318500
     19 N18         -2.3460     2.8890     0.2220 nb         1 35X      -0.647000
     20 C19         -3.3910    -0.7070     0.1740 cp         1 35X      -0.094500
     21 N22         -4.9750    -3.0220     0.2810 nb         1 35X      -0.659000
     22 C23         -5.5030    -1.8330     0.0190 ca         1 35X       0.394700
     23 H1           3.9230     1.5350    -0.6400 h4         1 35X       0.166000
     24 H2           0.7980    -1.4070    -0.3480 h4         1 35X       0.053100
     25 H3           2.0410     3.4860    -0.2990 h4         1 35X       0.168000
     26 H4          -4.1420     1.9250     0.4200 h4         1 35X       0.031100
     27 H5          -1.7770    -2.0680     0.6210 ha         1 35X       0.148500
     28 H6          -3.2390    -4.0430     0.6970 h4         1 35X       0.019100
     29 H7          -5.2760     0.2630    -0.2870 ha         1 35X       0.148500
     30 H8           7.8460    -0.9940    -0.0690 hc         1 35X       0.036700
     31 H9           7.6870    -2.2260     1.1770 hc         1 35X       0.036700
     32 H10          7.3750    -2.6350    -0.5060 hc         1 35X       0.036700
     33 H11          5.2220    -2.3570     0.7590 hc         1 35X       0.057200
     34 H12          5.6940    -0.7300     1.2200 hc         1 35X       0.057200
     35 H13          5.7300    -0.0510    -1.1790 h1         1 35X       0.060700
     36 H14          5.2690    -1.6800    -1.6550 h1         1 35X       0.060700
     37 H15         -0.1660     4.5860     0.0200 hn         1 35X       0.316700
     38 H16         -6.5730    -1.8030    -0.1540 h4         1 35X       0.019100
     39 C3           5.1920    -0.9420    -0.8550 c3         1 35X       0.057300
@<TRIPOS>BOND
     1     1     2 2   
     2     1    12 1   
     3     1    23 1   
     4     2     3 1   
     5     2    14 1   
     6     3    13 2   
     7     3    24 1   
     8     4    14 2   
     9     4    15 1   
    10     4    25 1   
    11     5    15 1   
    12     5    16 ar  
    13     5    19 ar  
    14     6    18 ar  
    15     6    19 ar  
    16     6    26 1   
    17     7     8 ar  
    18     7    20 ar  
    19     7    27 1   
    20     8    21 ar  
    21     8    28 1   
    22     9    20 ar  
    23     9    22 ar  
    24     9    29 1   
    25    10    11 1   
    26    10    30 1   
    27    10    31 1   
    28    10    32 1   
    29    11    33 1   
    30    11    34 1   
    31    11    39 1   
    32    12    13 1   
    33    12    39 1   
    34    14    16 1   
    35    15    37 1   
    36    16    17 ar  
    37    17    18 ar  
    38    18    20 1   
    39    21    22 ar  
    40    22    38 1   
    41    35    39 1   
    42    36    39 1   
@<TRIPOS>SUBSTRUCTURE
     1 35X         1 TEMP              0 ****  ****    0 ROOT
