@<TRIPOS>MOLECULE
35Y
   21    21     1     0     0
SMALL
bcc


@<TRIPOS>ATOM
      1 O1           7.6360   -30.8870    23.9540 o          1 35Y      -0.644100
      2 O            3.0100   -30.5060    27.1180 o          1 35Y      -0.831300
      3 N3           5.9740   -29.4730    24.6330 ns         1 35Y      -0.489900
      4 C            3.8660   -29.7100    26.6910 c          1 35Y       0.934600
      5 N4           4.9810   -29.5570    21.9600 nc         1 35Y      -0.363000
      6 CA           5.3460   -30.1040    26.9390 c3         1 35Y      -0.006500
      7 N5           4.8400   -29.8900    20.6800 nc         1 35Y      -0.059000
      8 C6           6.3100   -29.3450    26.0330 c3         1 35Y       0.131000
      9 N6           5.7370   -30.7300    20.3250 nd         1 35Y      -0.234800
     10 C7           6.6240   -30.2320    23.7600 c          1 35Y       0.602600
     11 N7           6.4820   -30.9530    21.3850 na         1 35Y      -0.133400
     12 C8           6.0160   -30.2280    22.4000 cd         1 35Y       0.347000
     13 N            5.5120   -31.5380    26.7710 n8         1 35Y      -0.885800
     14 HN3          5.1140   -29.0230    24.3520 hn         1 35Y       0.371500
     15 HA           5.5800   -29.7700    27.9660 h1         1 35Y       0.005700
     16 H6           7.3290   -29.7020    26.1820 h1         1 35Y       0.039200
     17 H6A          6.3010   -28.2870    26.2910 h1         1 35Y       0.039200
     18 HN7          7.2670   -31.5920    21.3560 hn         1 35Y       0.345700
     19 H            6.3430   -31.8510    27.2560 hn         1 35Y       0.331800
     20 H2           4.7260   -31.9980    27.2120 hn         1 35Y       0.331800
     21 OXT          3.6580   -28.6220    26.1150 o          1 35Y      -0.831300
@<TRIPOS>BOND
     1     1    10 2   
     2     2     4 1   
     3     3     8 1   
     4     3    10 1   
     5     3    14 1   
     6     4     6 1   
     7     4    21 1   
     8     5     7 1   
     9     5    12 2   
    10     6     8 1   
    11     6    13 1   
    12     6    15 1   
    13     7     9 2   
    14     8    16 1   
    15     8    17 1   
    16     9    11 1   
    17    10    12 1   
    18    11    12 1   
    19    11    18 1   
    20    13    19 1   
    21    13    20 1   
@<TRIPOS>SUBSTRUCTURE
     1 35Y         1 TEMP              0 ****  ****    0 ROOT
