@<TRIPOS>MOLECULE
35Z
   58    62     1     0     0
SMALL
No Charge or Current Charge


@<TRIPOS>ATOM
      1 C1          53.8950    -4.7100   -16.1240 c3         1 35Z       0.148900
      2 C3          53.6570    -3.1590   -18.0300 ca         1 35Z       0.127100
      3 C4          52.9440    -2.2130   -17.2660 ca         1 35Z      -0.178000
      4 C5          52.5070    -1.0220   -17.8640 ca         1 35Z      -0.089000
      5 C6          52.7750    -0.7690   -19.2200 ca         1 35Z      -0.106000
      6 C7          53.4910    -1.7010   -20.0210 cp         1 35Z      -0.120500
      7 C8          53.9220    -2.9010   -19.3860 ca         1 35Z      -0.100000
      8 N10         54.4730    -2.3660   -22.1680 nb         1 35Z      -0.179000
      9 C11         54.7300    -2.1240   -23.4670 ca         1 35Z       0.119900
     10 C12         54.2980    -0.9440   -24.0900 ca         1 35Z      -0.210000
     11 C15         53.0820     1.2510   -23.8530 cc         1 35Z      -0.272500
     12 C16         53.3970     1.7580   -25.0880 cd         1 35Z      -0.063000
     13 C17         52.7630     3.0150   -25.2160 cd         1 35Z      -0.239600
     14 C18         52.0830     3.2920   -24.0580 cc         1 35Z      -0.112300
     15 C21         50.9750     5.2320   -25.1600 c6         1 35Z       0.117000
     16 N22         51.9910     5.0570   -26.2160 ns         1 35Z      -0.510900
     17 C23         52.8150     3.9630   -26.3550 c          1 35Z       0.604600
     18 C30         49.6520     7.8960   -21.3970 c          1 35Z       0.603300
     19 C32         50.4700     9.1170   -21.0890 ce         1 35Z      -0.296200
     20 C33         50.1620    10.0060   -20.1110 c2         1 35Z      -0.236000
     21 O2          54.1140    -4.3490   -17.4990 os         1 35Z      -0.340100
     22 C9          53.7810    -1.4320   -21.4790 cp         1 35Z       0.209500
     23 C13         53.5840    -0.0150   -23.3100 ca         1 35Z       0.218500
     24 N14         53.3310    -0.2720   -22.0090 nb         1 35Z      -0.223000
     25 N19         52.2940     2.2060   -23.2040 na         1 35Z      -0.054000
     26 C20         51.3650     4.5970   -23.7830 c6         1 35Z       0.010300
     27 O24         53.5070     3.8070   -27.3480 o          1 35Z      -0.558000
     28 C25         50.1170     4.3590   -22.9020 c6         1 35Z      -0.097900
     29 C26         49.3940     5.6770   -22.5380 c6         1 35Z       0.093000
     30 N27         50.2640     6.7850   -22.0290 n          1 35Z      -0.401800
     31 C28         51.6670     6.8530   -22.5490 c6         1 35Z       0.093000
     32 C29         52.3140     5.5100   -22.9720 c6         1 35Z      -0.097900
     33 O31         48.4820     7.8410   -21.0400 o          1 35Z      -0.602100
     34 H1          54.3390    -5.6920   -15.9130 h1         1 35Z       0.040367
     35 H2          54.3570    -3.9770   -15.4500 h1         1 35Z       0.040367
     36 H3          52.8220    -4.7680   -15.9010 h1         1 35Z       0.040367
     37 H4          52.7230    -2.3820   -16.2160 ha         1 35Z       0.118000
     38 H5          51.9570    -0.2900   -17.2760 ha         1 35Z       0.115000
     39 H6          52.4190     0.1670   -19.6450 ha         1 35Z       0.126000
     40 H7          54.4730    -3.6520   -19.9440 ha         1 35Z       0.149000
     41 H8          55.2860    -2.8850   -24.0120 h4         1 35Z       0.027100
     42 H9          54.5110    -0.7730   -25.1400 ha         1 35Z       0.142000
     43 H10         54.0250     1.2950   -25.8430 ha         1 35Z       0.150000
     44 H11         50.7490     6.3020   -25.0550 h1         1 35Z       0.045700
     45 H12         50.0570     4.7480   -25.5240 h1         1 35Z       0.045700
     46 H13         52.0180     5.7260   -26.9750 hn         1 35Z       0.314500
     47 H14         51.3950     9.2490   -21.6430 ha         1 35Z       0.183000
     48 H16         50.8000    10.8650   -19.8940 ha         1 35Z       0.175500
     49 H17         49.2640     9.9050   -19.4990 ha         1 35Z       0.175500
     50 H19         51.9410     2.1280   -22.2550 hn         1 35Z       0.372000
     51 H20         49.4150     3.6810   -23.4070 hc         1 35Z       0.060200
     52 H21         50.4050     3.8590   -21.9680 hc         1 35Z       0.060200
     53 H22         48.8590     6.0460   -23.4250 h1         1 35Z       0.060450
     54 H23         48.6260     5.4420   -21.7870 h1         1 35Z       0.060450
     55 H24         52.3180     7.2920   -21.7800 h1         1 35Z       0.060450
     56 H25         51.6800     7.5390   -23.4090 h1         1 35Z       0.060450
     57 H26         52.6370     4.9820   -22.0650 hc         1 35Z       0.060200
     58 H27         53.2310     5.7100   -23.5440 hc         1 35Z       0.060200
@<TRIPOS>BOND
     1     1    21 1   
     2     1    34 1   
     3     1    35 1   
     4     1    36 1   
     5     2     3 ar  
     6     2     7 ar  
     7     2    21 1   
     8     3     4 ar  
     9     3    37 1   
    10     4     5 ar  
    11     4    38 1   
    12     5     6 ar  
    13     5    39 1   
    14     6     7 ar  
    15     6    22 1   
    16     7    40 1   
    17     8     9 ar  
    18     8    22 ar  
    19     9    10 ar  
    20     9    41 1   
    21    10    23 ar  
    22    10    42 1   
    23    11    12 2   
    24    11    23 1   
    25    11    25 1   
    26    12    13 1   
    27    12    43 1   
    28    13    14 2   
    29    13    17 1   
    30    14    25 1   
    31    14    26 1   
    32    15    16 1   
    33    15    26 1   
    34    15    44 1   
    35    15    45 1   
    36    16    17 1   
    37    16    46 1   
    38    17    27 2   
    39    18    19 1   
    40    18    30 1   
    41    18    33 2   
    42    19    20 2   
    43    19    47 1   
    44    20    48 1   
    45    20    49 1   
    46    22    24 ar  
    47    23    24 ar  
    48    25    50 1   
    49    26    28 1   
    50    26    32 1   
    51    28    29 1   
    52    28    51 1   
    53    28    52 1   
    54    29    30 1   
    55    29    53 1   
    56    29    54 1   
    57    30    31 1   
    58    31    32 1   
    59    31    55 1   
    60    31    56 1   
    61    32    57 1   
    62    32    58 1   
@<TRIPOS>SUBSTRUCTURE
     1 35Z         1 TEMP              0 ****  ****    0 ROOT
