@<TRIPOS>MOLECULE
35Z
   58    62     1     0     0
SMALL
abcg2


@<TRIPOS>ATOM
      1 C1          53.1080    -3.6610   -16.0190 c3         1 35Z       0.148900
      2 C3          53.1880    -2.3040   -17.9630 ca         1 35Z       0.127100
      3 C4          52.4020    -1.3080   -17.3880 ca         1 35Z      -0.178000
      4 C5          52.0930    -0.1730   -18.1300 ca         1 35Z      -0.089000
      5 C6          52.5460    -0.0150   -19.4260 ca         1 35Z      -0.106000
      6 C7          53.3390    -1.0120   -20.0020 cp         1 35Z      -0.120500
      7 C8          53.6560    -2.1460   -19.2660 ca         1 35Z      -0.100000
      8 N10         54.6980    -1.7800   -21.8330 nb         1 35Z      -0.179000
      9 C11         55.1340    -1.6330   -23.0790 ca         1 35Z       0.119900
     10 C12         54.7320    -0.5970   -23.8950 ca         1 35Z      -0.210000
     11 C15         53.3170     1.4470   -24.0740 cc         1 35Z      -0.272500
     12 C16         53.5340     1.8810   -25.3630 cd         1 35Z      -0.063000
     13 C17         52.7630     3.0500   -25.5280 cd         1 35Z      -0.239600
     14 C18         52.1040     3.2950   -24.3360 cc         1 35Z      -0.112300
     15 C21         50.7380     4.9160   -25.4650 c6         1 35Z       0.117000
     16 N22         51.7880     4.9740   -26.4650 ns         1 35Z      -0.510900
     17 C23         52.6800     3.9710   -26.6580 c          1 35Z       0.604600
     18 C30         50.3090     6.4600   -20.7260 c          1 35Z       0.603300
     19 C32         51.2590     7.4400   -20.1290 ce         1 35Z      -0.296200
     20 C33         51.6550     7.3260   -18.8660 c2         1 35Z      -0.236000
     21 O2          53.5440    -3.4470   -17.3460 os         1 35Z      -0.340100
     22 C9          53.8400    -0.8690   -21.3880 cp         1 35Z       0.209500
     23 C13         53.8280     0.3100   -23.3430 ca         1 35Z       0.218500
     24 N14         53.3930     0.1620   -22.0920 nb         1 35Z      -0.223000
     25 N19         52.4480     2.3270   -23.4740 na         1 35Z      -0.054000
     26 C20         51.2580     4.4990   -24.0780 c6         1 35Z       0.010300
     27 O24         53.3790     3.8800   -27.6590 o          1 35Z      -0.558000
     28 C25         50.0730     4.1900   -23.1510 c6         1 35Z      -0.097900
     29 C26         49.3440     5.4560   -22.7160 c6         1 35Z       0.093000
     30 N27         50.2610     6.3840   -22.0790 n          1 35Z      -0.401800
     31 C28         51.3290     6.8010   -22.9710 c6         1 35Z       0.093000
     32 C29         52.1370     5.5950   -23.4410 c6         1 35Z      -0.097900
     33 O31         49.5770     5.7890   -20.0090 o          1 35Z      -0.602100
     34 H1          53.5070    -4.6260   -15.7140 h1         1 35Z       0.040367
     35 H2          53.4830    -2.8950   -15.3350 h1         1 35Z       0.040367
     36 H3          52.0180    -3.6930   -15.9460 h1         1 35Z       0.040367
     37 H4          52.0230    -1.3950   -16.3780 ha         1 35Z       0.118000
     38 H5          51.4830     0.5980   -17.6780 ha         1 35Z       0.115000
     39 H6          52.2940     0.8730   -19.9880 ha         1 35Z       0.126000
     40 H7          54.2690    -2.9220   -19.7050 ha         1 35Z       0.149000
     41 H8          55.8370    -2.3750   -23.4390 h4         1 35Z       0.027100
     42 H9          55.1050    -0.5010   -24.9050 ha         1 35Z       0.142000
     43 H10         54.1680     1.4110   -26.0990 ha         1 35Z       0.150000
     44 H11         50.2710     5.8990   -25.4280 h1         1 35Z       0.045700
     45 H12         49.9580     4.2070   -25.7680 h1         1 35Z       0.045700
     46 H13         51.6480     5.6090   -27.2360 hn         1 35Z       0.314500
     47 H14         51.6120     8.2750   -20.7200 ha         1 35Z       0.183000
     48 H16         52.3260     8.0500   -18.4250 ha         1 35Z       0.175500
     49 H17         51.3310     6.5090   -18.2330 ha         1 35Z       0.175500
     50 H19         52.1380     2.2290   -22.5180 hn         1 35Z       0.372000
     51 H20         49.3740     3.5120   -23.6470 hc         1 35Z       0.060200
     52 H21         50.4230     3.6780   -22.2500 hc         1 35Z       0.060200
     53 H22         48.8920     5.9600   -23.5740 h1         1 35Z       0.060450
     54 H23         48.5370     5.2080   -22.0330 h1         1 35Z       0.060450
     55 H24         51.9970     7.5050   -22.4830 h1         1 35Z       0.060450
     56 H25         50.8890     7.3330   -23.8180 h1         1 35Z       0.060450
     57 H26         52.6650     5.1760   -22.5800 hc         1 35Z       0.060200
     58 H27         52.8990     5.9260   -24.1500 hc         1 35Z       0.060200
@<TRIPOS>BOND
     1     1    21 1   
     2     1    34 1   
     3     1    35 1   
     4     1    36 1   
     5     2     3 ar  
     6     2     7 ar  
     7     2    21 1   
     8     3     4 ar  
     9     3    37 1   
    10     4     5 ar  
    11     4    38 1   
    12     5     6 ar  
    13     5    39 1   
    14     6     7 ar  
    15     6    22 1   
    16     7    40 1   
    17     8     9 ar  
    18     8    22 ar  
    19     9    10 ar  
    20     9    41 1   
    21    10    23 ar  
    22    10    42 1   
    23    11    12 2   
    24    11    23 1   
    25    11    25 1   
    26    12    13 1   
    27    12    43 1   
    28    13    14 2   
    29    13    17 1   
    30    14    25 1   
    31    14    26 1   
    32    15    16 1   
    33    15    26 1   
    34    15    44 1   
    35    15    45 1   
    36    16    17 1   
    37    16    46 1   
    38    17    27 2   
    39    18    19 1   
    40    18    30 1   
    41    18    33 2   
    42    19    20 2   
    43    19    47 1   
    44    20    48 1   
    45    20    49 1   
    46    22    24 ar  
    47    23    24 ar  
    48    25    50 1   
    49    26    28 1   
    50    26    32 1   
    51    28    29 1   
    52    28    51 1   
    53    28    52 1   
    54    29    30 1   
    55    29    53 1   
    56    29    54 1   
    57    30    31 1   
    58    31    32 1   
    59    31    55 1   
    60    31    56 1   
    61    32    57 1   
    62    32    58 1   
@<TRIPOS>SUBSTRUCTURE
     1 35Z         1 TEMP              0 ****  ****    0 ROOT
