@<TRIPOS>MOLECULE
361
   36    39     1     0     0
SMALL
abcg2


@<TRIPOS>ATOM
      1 F21          4.3410    -1.9610     1.4660 f          1 361      -0.155000
      2 C5           3.8290    -1.0350     0.6480 ca         1 361       0.118000
      3 C6           4.6770    -0.3270    -0.1860 ca         1 361       0.167000
      4 F27          5.9850    -0.5810    -0.1610 f          1 361      -0.150000
      5 C4           2.4760    -0.7880     0.6360 ca         1 361      -0.114000
      6 C3           1.9290     0.1780    -0.2090 ca         1 361      -0.111300
      7 C2           2.8100     0.8680    -1.0260 ca         1 361       0.200000
      8 F22          2.3410     1.8050    -1.8610 f          1 361      -0.161000
      9 C1           4.1750     0.6340    -1.0350 ca         1 361      -0.174000
     10 C9           0.4450     0.4440    -0.2190 c6         1 361      -0.014400
     11 C14         -0.0720     0.8640     1.1640 c6         1 361       0.156500
     12 N23          0.6770     1.9980     1.6680 n8         1 361      -0.993200
     13 C13         -1.5290     1.2920     1.0360 c6         1 361       0.076600
     14 N12         -2.2940     0.2940     0.3200 na         1 361      -0.176600
     15 C29         -3.6510     0.1680     0.2820 ca         1 361      -0.053200
     16 C19         -3.8920    -0.8830    -0.6150 ca         1 361       0.014400
     17 N18         -2.7060    -1.3670    -1.1080 nc         1 361      -0.555100
     18 C11         -1.7860    -0.6440    -0.5320 cd         1 361       0.417800
     19 C10         -0.3160    -0.7960    -0.7010 c6         1 361      -0.091700
     20 C20         -5.2110    -1.2530    -0.8570 ca         1 361       0.404900
     21 N21         -6.2180    -0.6340    -0.2620 nb         1 361      -0.685000
     22 C22         -5.9620     0.3690     0.5890 ca         1 361       0.342900
     23 C23         -4.6970     0.8290     0.9100 ca         1 361      -0.165000
     24 H4           1.8380    -1.3570     1.3020 ha         1 361       0.138000
     25 H1           4.8310     1.1910    -1.6910 ha         1 361       0.158000
     26 H9           0.2380     1.2680    -0.9070 hc         1 361       0.091700
     27 H14         -0.0330    -0.0140     1.8270 h1         1 361       0.031700
     28 HN23         0.3080     2.2700     2.5720 hn         1 361       0.405000
     29 HN2A         1.6360     1.7230     1.8450 hn         1 361       0.405000
     30 H13         -1.9710     1.4330     2.0240 h1         1 361       0.068200
     31 H13A        -1.5790     2.2460     0.5050 h1         1 361       0.068200
     32 H10         -0.0960    -1.0040    -1.7480 hc         1 361       0.078200
     33 H10A         0.0030    -1.6790    -0.1370 hc         1 361       0.078200
     34 H20         -5.4490    -2.0620    -1.5400 h4         1 361       0.034100
     35 H22         -6.8270     0.8370     1.0430 h4         1 361       0.019100
     36 H23         -4.5580     1.6460     1.6040 ha         1 361       0.126000
@<TRIPOS>BOND
     1     1     2 1   
     2     2     3 ar  
     3     2     5 ar  
     4     3     4 1   
     5     3     9 ar  
     6     5     6 ar  
     7     5    24 1   
     8     6     7 ar  
     9     6    10 1   
    10     7     8 1   
    11     7     9 ar  
    12     9    25 1   
    13    10    11 1   
    14    10    19 1   
    15    10    26 1   
    16    11    12 1   
    17    11    13 1   
    18    11    27 1   
    19    12    28 1   
    20    12    29 1   
    21    13    14 1   
    22    13    30 1   
    23    13    31 1   
    24    14    15 1   
    25    14    18 1   
    26    15    16 ar  
    27    15    23 ar  
    28    16    17 1   
    29    16    20 ar  
    30    17    18 2   
    31    18    19 1   
    32    19    32 1   
    33    19    33 1   
    34    20    21 ar  
    35    20    34 1   
    36    21    22 ar  
    37    22    23 ar  
    38    22    35 1   
    39    23    36 1   
@<TRIPOS>SUBSTRUCTURE
     1 361         1 TEMP              0 ****  ****    0 ROOT
