@<TRIPOS>MOLECULE
361
   36    39     1     0     0
SMALL
No Charge or Current Charge


@<TRIPOS>ATOM
      1 F21          4.5180    -1.7390     1.6380 f          1 361      -0.155000
      2 C5           3.9580    -0.9140     0.7240 ca         1 361       0.118000
      3 C6           4.7560    -0.2870    -0.2500 ca         1 361       0.167000
      4 F27          6.0920    -0.5010    -0.2820 f          1 361      -0.150000
      5 C4           2.5720    -0.6880     0.7520 ca         1 361      -0.114000
      6 C3           1.9670     0.1720    -0.1940 ca         1 361      -0.111300
      7 C2           2.7850     0.7900    -1.1730 ca         1 361       0.200000
      8 F22          2.2470     1.6050    -2.1080 f          1 361      -0.161000
      9 C1           4.1700     0.5630    -1.1990 ca         1 361      -0.174000
     10 C9           0.4400     0.4050    -0.1600 c6         1 361      -0.014400
     11 C14         -0.0860     0.8820     1.2400 c6         1 361       0.156500
     12 N23          0.6940     2.0430     1.7320 n8         1 361      -0.993200
     13 C13         -1.6100     1.2170     1.2040 c6         1 361       0.076600
     14 N12         -2.3510     0.1490     0.5090 na         1 361      -0.176600
     15 C29         -3.6960     0.0820     0.3000 ca         1 361      -0.053200
     16 C19         -3.9250    -0.8340    -0.6870 ca         1 361       0.014400
     17 N18         -2.7310    -1.3700    -1.1750 nc         1 361      -0.555100
     18 C11         -1.8040    -0.7220    -0.4380 cd         1 361       0.417800
     19 C10         -0.3170    -0.8740    -0.6350 c6         1 361      -0.091700
     20 C20         -5.2600    -1.0980    -1.0740 ca         1 361       0.404900
     21 N21         -6.3190    -0.4640    -0.4920 nb         1 361      -0.685000
     22 C22         -6.0570     0.4440     0.4890 ca         1 361       0.342900
     23 C23         -4.7520     0.7540     0.9260 ca         1 361      -0.165000
     24 H4           1.9730    -1.1890     1.5090 ha         1 361       0.138000
     25 H1           4.7850     1.0430    -1.9540 ha         1 361       0.158000
     26 H9           0.1860     1.2070    -0.8680 hc         1 361       0.091700
     27 H14          0.0700     0.0650     1.9610 h1         1 361       0.031700
     28 HN23         0.5200     2.1630     2.7370 hn         1 361       0.405000
     29 HN2A         1.6920     1.8050     1.6890 hn         1 361       0.405000
     30 H13         -1.9990     1.3310     2.2250 h1         1 361       0.068200
     31 H13A        -1.7730     2.1610     0.6670 h1         1 361       0.068200
     32 H10         -0.0880    -1.0740    -1.6900 hc         1 361       0.078200
     33 H10A         0.0280    -1.7500    -0.0710 hc         1 361       0.078200
     34 H20         -5.4860    -1.8190    -1.8590 h4         1 361       0.034100
     35 H22         -6.9210     0.9330     0.9380 h4         1 361       0.019100
     36 H23         -4.5860     1.4810     1.7160 ha         1 361       0.126000
@<TRIPOS>BOND
     1     1     2 1   
     2     2     3 ar  
     3     2     5 ar  
     4     3     4 1   
     5     3     9 ar  
     6     5     6 ar  
     7     5    24 1   
     8     6     7 ar  
     9     6    10 1   
    10     7     8 1   
    11     7     9 ar  
    12     9    25 1   
    13    10    11 1   
    14    10    19 1   
    15    10    26 1   
    16    11    12 1   
    17    11    13 1   
    18    11    27 1   
    19    12    28 1   
    20    12    29 1   
    21    13    14 1   
    22    13    30 1   
    23    13    31 1   
    24    14    15 1   
    25    14    18 1   
    26    15    16 ar  
    27    15    23 ar  
    28    16    17 1   
    29    16    20 ar  
    30    17    18 2   
    31    18    19 1   
    32    19    32 1   
    33    19    33 1   
    34    20    21 ar  
    35    20    34 1   
    36    21    22 ar  
    37    22    23 ar  
    38    22    35 1   
    39    23    36 1   
@<TRIPOS>SUBSTRUCTURE
     1 361         1 TEMP              0 ****  ****    0 ROOT
