@<TRIPOS>MOLECULE
362
   30    33     1     0     0
SMALL
bcc


@<TRIPOS>ATOM
      1 C4          -2.0610     1.5240     0.0870 ca         1 362       0.419200
      2 C6          -4.0910     2.5320    -0.1590 ca         1 362       0.397200
      3 C7          -1.7320    -0.9420    -0.0990 cc         1 362      -0.189000
      4 C8          -2.1620    -2.2500    -0.1270 cd         1 362      -0.078100
      5 C15          2.2010    -1.9040     0.0770 ca         1 362       0.306900
      6 C17          2.9500     0.4800     0.1200 cc         1 362      -0.334800
      7 C22          2.7850     1.8800     0.1950 cc         1 362       0.349200
      8 C1          -4.7160     1.3150    -0.3950 ca         1 362      -0.249300
      9 C2          -3.9520     0.1640    -0.3860 ca         1 362      -0.099000
     10 C3          -2.5800     0.2450    -0.1340 ca         1 362      -0.121100
     11 N5          -2.7890     2.6340     0.0740 nb         1 362      -0.667000
     12 N9          -1.1110    -3.1110    -0.0860 na         1 362      -0.262100
     13 C11          0.0410    -2.3940    -0.0270 ca         1 362       0.309500
     14 C12         -0.3020    -1.0230    -0.0320 ca         1 362       0.331800
     15 N13          0.6440    -0.0920     0.0130 nb         1 362      -0.612000
     16 C14          1.8990    -0.5260     0.0670 ca         1 362       0.393500
     17 N16          1.2760    -2.8460     0.0280 nb         1 362      -0.638000
     18 C18          4.3230     0.3110     0.1050 cd         1 362      -0.120300
     19 N19          4.8540     1.5370     0.1680 na         1 362       0.000400
     20 N21          3.9450     2.5040     0.2250 nd         1 362      -0.523800
     21 H1          -1.0020     1.6500     0.2790 h4         1 362       0.043100
     22 H2          -4.6620     3.4540    -0.1630 h4         1 362       0.017100
     23 H3          -3.1670    -2.6390    -0.1680 h4         1 362       0.170000
     24 H4           3.2310    -2.2370     0.1300 h4         1 362       0.026100
     25 H5           1.8610     2.4360     0.2300 h4         1 362       0.055100
     26 H6          -5.7800     1.2740    -0.5850 ha         1 362       0.138000
     27 H7          -4.4240    -0.7900    -0.5830 ha         1 362       0.126000
     28 H8          -1.1830    -4.1160    -0.0830 hn         1 362       0.316700
     29 H9           4.9440    -0.5680     0.0510 h4         1 362       0.172000
     30 H10          5.8350     1.7680     0.1740 hn         1 362       0.322700
@<TRIPOS>BOND
     1     1    10 ar  
     2     1    11 ar  
     3     1    21 1   
     4     2     8 ar  
     5     2    11 ar  
     6     2    22 1   
     7     3     4 2   
     8     3    10 1   
     9     3    14 1   
    10     4    12 1   
    11     4    23 1   
    12     5    16 ar  
    13     5    17 ar  
    14     5    24 1   
    15     6     7 1   
    16     6    16 1   
    17     6    18 2   
    18     7    20 2   
    19     7    25 1   
    20     8     9 ar  
    21     8    26 1   
    22     9    10 ar  
    23     9    27 1   
    24    12    13 1   
    25    12    28 1   
    26    13    14 ar  
    27    13    17 ar  
    28    14    15 ar  
    29    15    16 ar  
    30    18    19 1   
    31    18    29 1   
    32    19    20 1   
    33    19    30 1   
@<TRIPOS>SUBSTRUCTURE
     1 362         1 TEMP              0 ****  ****    0 ROOT
