@<TRIPOS>MOLECULE
362
   30    33     1     0     0
SMALL
No Charge or Current Charge


@<TRIPOS>ATOM
      1 C4          -2.1410     1.4510     0.5260 ca         1 362       0.353900
      2 C6          -4.1120     2.5290    -0.0500 ca         1 362       0.331900
      3 C7          -1.7120    -0.9650    -0.0280 cc         1 362      -0.189000
      4 C8          -2.2360    -2.2520    -0.0140 cd         1 362      -0.128100
      5 C15          2.2450    -1.9010     0.0740 ca         1 362       0.306900
      6 C17          2.9450     0.5450     0.0270 cc         1 362      -0.269500
      7 C22          2.7880     1.9370    -0.0090 cc         1 362       0.283900
      8 C1          -4.6190     1.3640    -0.6490 ca         1 362      -0.166000
      9 C2          -3.8400     0.1950    -0.6520 ca         1 362      -0.081000
     10 C3          -2.5660     0.2300    -0.0510 ca         1 362      -0.055800
     11 N5          -2.8930     2.5810     0.5330 nb         1 362      -0.667000
     12 N9          -1.1560    -3.1730     0.0310 na         1 362      -0.312400
     13 C11          0.0210    -2.4400     0.0460 ca         1 362       0.309500
     14 C12         -0.2820    -1.0800     0.0130 ca         1 362       0.331800
     15 N13          0.6260    -0.0760     0.0010 nb         1 362      -0.612000
     16 C14          1.9200    -0.5020     0.0340 ca         1 362       0.393500
     17 N16          1.2980    -2.8890     0.0790 nb         1 362      -0.638000
     18 C18          4.2870     0.2920     0.0580 cd         1 362      -0.153000
     19 N19          4.8770     1.5640     0.0380 na         1 362       0.000800
     20 N21          3.9310     2.5930    -0.0040 nd         1 362      -0.523800
     21 H1          -1.1740     1.5300     1.0200 h4         1 362       0.043100
     22 H2          -4.6980     3.4470    -0.0360 h4         1 362       0.017100
     23 H3          -3.2740    -2.5810    -0.0200 h4         1 362       0.220000
     24 H4           3.2790    -2.2390     0.1000 h4         1 362       0.026100
     25 H5           1.8610     2.4960    -0.0390 h4         1 362       0.055100
     26 H6          -5.6050     1.3750    -1.1060 ha         1 362       0.120000
     27 H7          -4.2190    -0.7090    -1.1230 ha         1 362       0.108000
     28 H8          -1.2170    -4.1850     0.0540 hn         1 362       0.367000
     29 H9           4.8620    -0.6280     0.0910 h4         1 362       0.154000
     30 H10          5.8780     1.7620     0.0510 hn         1 362       0.373000
@<TRIPOS>BOND
     1     1    10 ar  
     2     1    11 ar  
     3     1    21 1   
     4     2     8 ar  
     5     2    11 ar  
     6     2    22 1   
     7     3     4 2   
     8     3    10 1   
     9     3    14 1   
    10     4    12 1   
    11     4    23 1   
    12     5    16 ar  
    13     5    17 ar  
    14     5    24 1   
    15     6     7 1   
    16     6    16 1   
    17     6    18 2   
    18     7    20 2   
    19     7    25 1   
    20     8     9 ar  
    21     8    26 1   
    22     9    10 ar  
    23     9    27 1   
    24    12    13 1   
    25    12    28 1   
    26    13    14 ar  
    27    13    17 ar  
    28    14    15 ar  
    29    15    16 ar  
    30    18    19 1   
    31    18    29 1   
    32    19    20 1   
    33    19    30 1   
@<TRIPOS>SUBSTRUCTURE
     1 362         1 TEMP              0 ****  ****    0 ROOT
