@<TRIPOS>MOLECULE
367
   51    53     1     0     0
SMALL
abcg2


@<TRIPOS>ATOM
      1 C01          1.0150    -0.6350     0.7740 ca         1 367      -0.060000
      2 C02          1.6920    -0.9970    -0.4280 ca         1 367      -0.022000
      3 C03          1.5340    -2.2500    -0.9610 ca         1 367      -0.112000
      4 C04          0.6970    -3.1920    -0.3310 ca         1 367      -0.083000
      5 C05          0.0070    -2.8680     0.8020 ca         1 367      -0.114000
      6 C06          0.1450    -1.5830     1.3740 ca         1 367      -0.014000
      7 C10          1.1790     0.6210     1.3950 ca         1 367      -0.050000
      8 C11          0.4890     0.9570     2.5320 ca         1 367      -0.146900
      9 C13         -0.5540    -1.2180     2.5460 ca         1 367      -0.103000
     10 C14         -0.3970     0.0180     3.1070 ca         1 367      -0.091000
     11 C17          0.7130     2.2930     3.1520 ce         1 367       0.669800
     12 N18          1.8390     2.8730     2.9690 n2         1 367      -0.845100
     13 N19         -0.3130     2.7550     3.9190 nv         1 367      -1.080200
     14 N20          2.4950    -0.0220    -1.0470 ns         1 367      -0.161000
     15 C21          3.7270    -0.2120    -1.5790 c          1 367       0.622700
     16 O22          4.2750    -1.2910    -1.6850 o          1 367      -0.567100
     17 C27          4.3890     1.0480    -2.0370 ca         1 367      -0.174600
     18 C28          5.1390     1.0380    -3.2130 ca         1 367      -0.007000
     19 C29          5.7660     2.1910    -3.6530 ca         1 367      -0.138000
     20 C30          5.6770     3.3660    -2.9170 ca         1 367       0.013000
     21 C31          4.9560     3.3540    -1.7350 ca         1 367      -0.284500
     22 C32          4.3120     2.2100    -1.2840 ca         1 367       0.010000
     23 S36          4.8670     4.8000    -0.7270 sy         1 367       1.296200
     24 O38          3.2950     5.0710    -0.8020 os         1 367      -0.584700
     25 O42          5.2260     4.4580     0.6360 o          1 367      -0.539500
     26 O43          5.5480     5.8910    -1.3900 o          1 367      -0.539500
     27 C44          2.5500     5.3390     0.4140 c3         1 367       0.208600
     28 C45          1.1210     5.6200     0.0020 c3         1 367      -0.124400
     29 C46          0.2680     5.9320     1.2270 c3         1 367       0.158600
     30 O47         -1.0830     6.1580     0.9040 oh         1 367      -0.653000
     31 H03          2.0300    -2.5200    -1.8810 ha         1 367       0.135000
     32 H04          0.5920    -4.1750    -0.7700 ha         1 367       0.119000
     33 H05         -0.6520    -3.5860     1.2730 ha         1 367       0.118000
     34 H10          1.8680     1.3500     0.9900 ha         1 367       0.127000
     35 H13         -1.2180    -1.9400     3.0050 ha         1 367       0.118000
     36 H14         -0.9320     0.2580     4.0160 ha         1 367       0.120000
     37 H18          1.8620     3.7820     3.4240 hn         1 367       0.368400
     38 H191        -0.2560     3.7000     4.2640 hn         1 367       0.467500
     39 H192        -1.2510     2.4490     3.7190 hn         1 367       0.467500
     40 H20          2.0930     0.8990    -1.1370 hn         1 367       0.159000
     41 H28          5.2180     0.1280    -3.7920 ha         1 367       0.135000
     42 H29          6.3310     2.1800    -4.5750 ha         1 367       0.126000
     43 H30          6.1690     4.2630    -3.2630 ha         1 367       0.145000
     44 H32          3.7840     2.2160    -0.3380 ha         1 367       0.134000
     45 H441         2.6020     4.4700     1.0730 h1         1 367       0.060700
     46 H442         2.9810     6.1990     0.9290 h1         1 367       0.060700
     47 H451         0.7050     4.7540    -0.5200 hc         1 367       0.064700
     48 H452         1.0960     6.4690    -0.6870 hc         1 367       0.064700
     49 H461         0.2850     5.0800     1.9090 h1         1 367       0.038700
     50 H462         0.7000     6.7820     1.7700 h1         1 367       0.038700
     51 H47         -1.1360     6.9650     0.3830 ho         1 367       0.445000
@<TRIPOS>BOND
     1     1     2 ar  
     2     1     6 ar  
     3     1     7 ar  
     4     2     3 ar  
     5     2    14 1   
     6     3     4 ar  
     7     3    31 1   
     8     4     5 ar  
     9     4    32 1   
    10     5     6 ar  
    11     5    33 1   
    12     6     9 ar  
    13     7     8 ar  
    14     7    34 1   
    15     8    10 ar  
    16     8    11 1   
    17     9    10 ar  
    18     9    35 1   
    19    10    36 1   
    20    11    12 2   
    21    11    13 1   
    22    12    37 1   
    23    13    38 1   
    24    13    39 1   
    25    14    15 1   
    26    14    40 1   
    27    15    16 2   
    28    15    17 1   
    29    17    18 ar  
    30    17    22 ar  
    31    18    19 ar  
    32    18    41 1   
    33    19    20 ar  
    34    19    42 1   
    35    20    21 ar  
    36    20    43 1   
    37    21    22 ar  
    38    21    23 1   
    39    22    44 1   
    40    23    24 1   
    41    23    25 2   
    42    23    26 2   
    43    24    27 1   
    44    27    28 1   
    45    27    45 1   
    46    27    46 1   
    47    28    29 1   
    48    28    47 1   
    49    28    48 1   
    50    29    30 1   
    51    29    49 1   
    52    29    50 1   
    53    30    51 1   
@<TRIPOS>SUBSTRUCTURE
     1 367         1 TEMP              0 ****  ****    0 ROOT
