@<TRIPOS>MOLECULE
367
   51    53     1     0     0
SMALL
No Charge or Current Charge


@<TRIPOS>ATOM
      1 C01          1.0620    -0.7760     1.0790 ca         1 367      -0.060000
      2 C02          1.8530    -1.1160    -0.0520 ca         1 367      -0.022000
      3 C03          1.8870    -2.4590    -0.4900 ca         1 367      -0.112000
      4 C04          1.1410    -3.4470     0.1710 ca         1 367      -0.083000
      5 C05          0.3570    -3.1100     1.2820 ca         1 367      -0.114000
      6 C06          0.3170    -1.7810     1.7390 ca         1 367      -0.014000
      7 C10          0.9920     0.5530     1.5630 ca         1 367      -0.050000
      8 C11          0.1930     0.8920     2.6790 ca         1 367      -0.146900
      9 C13         -0.4630    -1.4580     2.8610 ca         1 367      -0.103000
     10 C14         -0.5210    -0.1380     3.3340 ca         1 367      -0.091000
     11 C17          0.1670     2.3060     3.1850 ce         1 367       0.669800
     12 N18          1.0150     3.1860     2.8480 n2         1 367      -0.845100
     13 N19         -0.8660     2.6910     3.9610 nv         1 367      -1.080200
     14 N20          2.6230    -0.1090    -0.7010 ns         1 367      -0.161000
     15 C21          3.1510    -0.0230    -1.9830 c          1 367       0.622700
     16 O22          2.9620    -0.8770    -2.8420 o          1 367      -0.567100
     17 C27          3.9700     1.2200    -2.2780 ca         1 367      -0.174600
     18 C28          4.4250     1.4500    -3.5960 ca         1 367      -0.007000
     19 C29          5.1670     2.6010    -3.9070 ca         1 367      -0.138000
     20 C30          5.4700     3.5410    -2.9110 ca         1 367       0.013000
     21 C31          5.0360     3.3230    -1.5900 ca         1 367      -0.284500
     22 C32          4.2910     2.1670    -1.2730 ca         1 367       0.010000
     23 S36          5.4240     4.5350    -0.3080 sy         1 367       1.296200
     24 O38          4.0770     5.5570    -0.5410 os         1 367      -0.584700
     25 O42          5.2890     3.9140     1.0160 o          1 367      -0.539500
     26 O43          6.6140     5.3030    -0.7000 o          1 367      -0.539500
     27 C44          2.8750     5.1680     0.1400 c3         1 367       0.208600
     28 C45          1.7780     6.1640    -0.2780 c3         1 367      -0.124400
     29 C46          0.4210     5.8610     0.3820 c3         1 367       0.158600
     30 O47         -0.5580     6.8000    -0.0770 oh         1 367      -0.653000
     31 H03          2.5040    -2.7590    -1.3320 ha         1 367       0.135000
     32 H04          1.1780    -4.4780    -0.1750 ha         1 367       0.119000
     33 H05         -0.2140    -3.8830     1.7900 ha         1 367       0.118000
     34 H10          1.5480     1.3450     1.0690 ha         1 367       0.127000
     35 H13         -1.0260    -2.2340     3.3760 ha         1 367       0.118000
     36 H14         -1.1170     0.0700     4.2190 ha         1 367       0.120000
     37 H18          0.9520     3.9540     3.5240 hn         1 367       0.368400
     38 H191        -1.0970     3.6760     3.9190 hn         1 367       0.467500
     39 H192        -1.6640     2.0650     3.9580 hn         1 367       0.467500
     40 H20          2.8220     0.6890    -0.1160 hn         1 367       0.159000
     41 H28          4.1990     0.7400    -4.3900 ha         1 367       0.135000
     42 H29          5.5050     2.7670    -4.9270 ha         1 367       0.126000
     43 H30          6.0400     4.4320    -3.1720 ha         1 367       0.145000
     44 H32          3.9710     2.0160    -0.2440 ha         1 367       0.134000
     45 H441         2.5660     4.1520    -0.1420 h1         1 367       0.060700
     46 H442         3.0050     5.2040     1.2310 h1         1 367       0.060700
     47 H451         1.6660     6.1310    -1.3690 hc         1 367       0.064700
     48 H452         2.0980     7.1790    -0.0120 hc         1 367       0.064700
     49 H461         0.1140     4.8380     0.1270 h1         1 367       0.038700
     50 H462         0.5240     5.9180     1.4750 h1         1 367       0.038700
     51 H47         -0.2760     7.6880     0.2360 ho         1 367       0.445000
@<TRIPOS>BOND
     1     1     2 ar  
     2     1     6 ar  
     3     1     7 ar  
     4     2     3 ar  
     5     2    14 1   
     6     3     4 ar  
     7     3    31 1   
     8     4     5 ar  
     9     4    32 1   
    10     5     6 ar  
    11     5    33 1   
    12     6     9 ar  
    13     7     8 ar  
    14     7    34 1   
    15     8    10 ar  
    16     8    11 1   
    17     9    10 ar  
    18     9    35 1   
    19    10    36 1   
    20    11    12 2   
    21    11    13 1   
    22    12    37 1   
    23    13    38 1   
    24    13    39 1   
    25    14    15 1   
    26    14    40 1   
    27    15    16 2   
    28    15    17 1   
    29    17    18 ar  
    30    17    22 ar  
    31    18    19 ar  
    32    18    41 1   
    33    19    20 ar  
    34    19    42 1   
    35    20    21 ar  
    36    20    43 1   
    37    21    22 ar  
    38    21    23 1   
    39    22    44 1   
    40    23    24 1   
    41    23    25 2   
    42    23    26 2   
    43    24    27 1   
    44    27    28 1   
    45    27    45 1   
    46    27    46 1   
    47    28    29 1   
    48    28    47 1   
    49    28    48 1   
    50    29    30 1   
    51    29    49 1   
    52    29    50 1   
    53    30    51 1   
@<TRIPOS>SUBSTRUCTURE
     1 367         1 TEMP              0 ****  ****    0 ROOT
