@<TRIPOS>MOLECULE
369
   45    48     1     0     0
SMALL
bcc


@<TRIPOS>ATOM
      1 C10         -0.8060    -0.3920    -0.3900 ca         1 369       0.144100
      2 C12          1.5020     2.0970    -1.2860 ca         1 369      -0.115500
      3 C13          2.1930     3.1770    -0.7580 ca         1 369      -0.171500
      4 C15          0.6120     3.3050     1.0460 ca         1 369      -0.171500
      5 C19          2.1920    -0.3460     1.2980 ca         1 369      -0.149000
      6 C21          4.2480    -0.5400     0.0530 ca         1 369      -0.161000
      7 C22          3.5620    -1.1760    -0.9780 ca         1 369       0.132100
      8 C23          2.1920    -1.3930    -0.8680 ca         1 369      -0.201000
      9 C1           0.3920    -3.0920     1.9750 c3         1 369      -0.050800
     10 C2          -0.5140    -2.2020     1.1780 ca         1 369      -0.031300
     11 C3          -1.8730    -2.3800     1.2140 ca         1 369      -0.145000
     12 C4          -2.7520    -1.5730     0.4580 ca         1 369       0.023000
     13 C5          -4.1520    -1.7560     0.5040 ca         1 369      -0.239000
     14 C6          -4.9850    -0.9470    -0.2270 ca         1 369       0.155100
     15 O1          -6.3260    -1.0680    -0.2280 oh         1 369      -0.491100
     16 C7          -4.4460     0.0820    -1.0340 ca         1 369      -0.156000
     17 C8          -3.0950     0.2720    -1.0980 ca         1 369      -0.065000
     18 C9          -2.2120    -0.5490    -0.3580 ca         1 369      -0.085000
     19 O2          -0.3050     0.5700    -1.2230 os         1 369      -0.259200
     20 C11          0.3660     1.6250    -0.6500 ca         1 369       0.083100
     21 C14          1.7570     3.7830     0.4160 ca         1 369       0.120100
     22 O3           2.3980     4.8310     0.9810 oh         1 369      -0.496100
     23 C16         -0.0840     2.2320     0.5120 ca         1 369      -0.115500
     24 C17          0.0370    -1.1830     0.3520 cp         1 369      -0.081000
     25 C18          1.5040    -0.9770     0.2660 cp         1 369       0.005000
     26 C20          3.5570    -0.1310     1.1810 ca         1 369      -0.095000
     27 H12          1.8570     1.6130    -2.1860 ha         1 369       0.147000
     28 H13          3.0830     3.5350    -1.2620 ha         1 369       0.140500
     29 H15          0.2620     3.7780     1.9560 ha         1 369       0.140500
     30 H19          1.6590    -0.0030     2.1740 ha         1 369       0.138000
     31 H21          5.3140    -0.3690    -0.0350 ha         1 369       0.145000
     32 H23          1.6540    -1.8830    -1.6730 ha         1 369       0.138000
     33 H1           1.0910    -3.6260     1.3280 hc         1 369       0.047033
     34 H1A          0.9940    -2.5250     2.6870 hc         1 369       0.047033
     35 H1B         -0.1800    -3.8320     2.5330 hc         1 369       0.047033
     36 H3          -2.2930    -3.1660     1.8320 ha         1 369       0.134000
     37 H5          -4.5580    -2.5470     1.1250 ha         1 369       0.133000
     38 HO1         -6.5980    -1.7950     0.3440 ho         1 369       0.427000
     39 H7          -5.1160     0.7160    -1.6010 ha         1 369       0.149000
     40 H8          -2.7020     1.0630    -1.7220 ha         1 369       0.151000
     41 HO3          3.1640     5.0790     0.4530 ho         1 369       0.424000
     42 H16         -0.9750     1.8750     1.0150 ha         1 369       0.147000
     43 H20          4.0910     0.3700     1.9790 ha         1 369       0.133000
     44 HO4          3.6970    -2.0120    -2.6920 ho         1 369       0.426000
     45 O4           4.2700    -1.5620    -2.0610 oh         1 369      -0.498100
@<TRIPOS>BOND
     1     1    18 ar  
     2     1    19 1   
     3     1    24 ar  
     4     2     3 ar  
     5     2    20 ar  
     6     2    27 1   
     7     3    21 ar  
     8     3    28 1   
     9     4    21 ar  
    10     4    23 ar  
    11     4    29 1   
    12     5    25 ar  
    13     5    26 ar  
    14     5    30 1   
    15     6     7 ar  
    16     6    26 ar  
    17     6    31 1   
    18     7     8 ar  
    19     7    45 1   
    20     8    25 ar  
    21     8    32 1   
    22     9    10 1   
    23     9    33 1   
    24     9    34 1   
    25     9    35 1   
    26    10    11 ar  
    27    10    24 ar  
    28    11    12 ar  
    29    11    36 1   
    30    12    13 ar  
    31    12    18 ar  
    32    13    14 ar  
    33    13    37 1   
    34    14    15 1   
    35    14    16 ar  
    36    15    38 1   
    37    16    17 ar  
    38    16    39 1   
    39    17    18 ar  
    40    17    40 1   
    41    19    20 1   
    42    20    23 ar  
    43    21    22 1   
    44    22    41 1   
    45    23    42 1   
    46    24    25 1   
    47    26    43 1   
    48    44    45 1   
@<TRIPOS>SUBSTRUCTURE
     1 369         1 TEMP              0 ****  ****    0 ROOT
