@<TRIPOS>MOLECULE
369
   45    48     1     0     0
SMALL
No Charge or Current Charge


@<TRIPOS>ATOM
      1 C10         -0.8560    -0.4000    -0.4120 ca         1 369       0.144100
      2 C12          1.3770     2.2580    -1.4970 ca         1 369      -0.097500
      3 C13          2.1180     3.3440    -0.9970 ca         1 369      -0.153500
      4 C15          0.8750     3.2280     1.0920 ca         1 369      -0.153500
      5 C19          2.2100    -0.5530     1.4570 ca         1 369      -0.131000
      6 C21          4.2930    -0.5870     0.2030 ca         1 369      -0.143000
      7 C22          3.6010    -1.0370    -0.9310 ca         1 369       0.132100
      8 C23          2.2140    -1.2460    -0.8730 ca         1 369      -0.183000
      9 C1           0.3010    -3.1200     2.0740 c3         1 369      -0.050800
     10 C2          -0.5610    -2.2010     1.2130 ca         1 369      -0.031300
     11 C3          -1.9590    -2.3700     1.2460 ca         1 369      -0.127000
     12 C4          -2.8040    -1.5720     0.4560 ca         1 369       0.023000
     13 C5          -4.1970    -1.7640     0.5050 ca         1 369      -0.221000
     14 C6          -5.0440    -0.9690    -0.2800 ca         1 369       0.155100
     15 O1          -6.3920    -1.1540    -0.2330 oh         1 369      -0.530100
     16 C7          -4.5050     0.0200    -1.1150 ca         1 369      -0.138000
     17 C8          -3.1150     0.2180    -1.1690 ca         1 369      -0.047000
     18 C9          -2.2550    -0.5800    -0.3830 ca         1 369      -0.085000
     19 O2          -0.3080     0.5790    -1.2160 os         1 369      -0.259200
     20 C11          0.3900     1.6510    -0.7020 ca         1 369       0.083100
     21 C14          1.8670     3.8270     0.2990 ca         1 369       0.120100
     22 O3           2.5790     4.8790     0.7920 oh         1 369      -0.535100
     23 C16          0.1330     2.1410     0.5950 ca         1 369      -0.097500
     24 C17          0.0140    -1.2040     0.3770 cp         1 369      -0.081000
     25 C18          1.4950    -1.0090     0.3240 cp         1 369       0.005000
     26 C20          3.5980    -0.3430     1.4000 ca         1 369      -0.077000
     27 H12          1.5740     1.8780    -2.4970 ha         1 369       0.129000
     28 H13          2.8840     3.8030    -1.6180 ha         1 369       0.122500
     29 H15          0.6800     3.6050     2.0930 ha         1 369       0.122500
     30 H19          1.6760    -0.3500     2.3820 ha         1 369       0.120000
     31 H21          5.3660    -0.4240     0.1550 ha         1 369       0.127000
     32 H23          1.6760    -1.5890    -1.7520 ha         1 369       0.120000
     33 H1           1.1840    -3.4690     1.5260 hc         1 369       0.047033
     34 H1A          0.6450    -2.6030     2.9760 hc         1 369       0.047033
     35 H1B         -0.2510    -4.0120     2.3950 hc         1 369       0.047033
     36 H3          -2.3930    -3.1330     1.8870 ha         1 369       0.116000
     37 H5          -4.6150    -2.5310     1.1540 ha         1 369       0.115000
     38 HO1         -6.5810    -1.8810     0.3980 ho         1 369       0.466000
     39 H7          -5.1650     0.6350    -1.7210 ha         1 369       0.131000
     40 H8          -2.7150     0.9910    -1.8220 ha         1 369       0.133000
     41 HO3          3.2210     5.1690     0.1100 ho         1 369       0.463000
     42 H16         -0.6340     1.6860     1.2160 ha         1 369       0.129000
     43 H20          4.1320     0.0110     2.2790 ha         1 369       0.115000
     44 HO4          3.6430    -1.5780    -2.7670 ho         1 369       0.465000
     45 O4           4.2810    -1.2680    -2.0890 oh         1 369      -0.537100
@<TRIPOS>BOND
     1     1    18 ar  
     2     1    19 1   
     3     1    24 ar  
     4     2     3 ar  
     5     2    20 ar  
     6     2    27 1   
     7     3    21 ar  
     8     3    28 1   
     9     4    21 ar  
    10     4    23 ar  
    11     4    29 1   
    12     5    25 ar  
    13     5    26 ar  
    14     5    30 1   
    15     6     7 ar  
    16     6    26 ar  
    17     6    31 1   
    18     7     8 ar  
    19     7    45 1   
    20     8    25 ar  
    21     8    32 1   
    22     9    10 1   
    23     9    33 1   
    24     9    34 1   
    25     9    35 1   
    26    10    11 ar  
    27    10    24 ar  
    28    11    12 ar  
    29    11    36 1   
    30    12    13 ar  
    31    12    18 ar  
    32    13    14 ar  
    33    13    37 1   
    34    14    15 1   
    35    14    16 ar  
    36    15    38 1   
    37    16    17 ar  
    38    16    39 1   
    39    17    18 ar  
    40    17    40 1   
    41    19    20 1   
    42    20    23 ar  
    43    21    22 1   
    44    22    41 1   
    45    23    42 1   
    46    24    25 1   
    47    26    43 1   
    48    44    45 1   
@<TRIPOS>SUBSTRUCTURE
     1 369         1 TEMP              0 ****  ****    0 ROOT
