@<TRIPOS>MOLECULE
36A
   58    61     1     0     0
SMALL
bcc


@<TRIPOS>ATOM
      1 C           -6.7100    -3.7930     0.7470 c          1 36A       0.904600
      2 N           -7.8730    -2.0160    -0.6470 n8         1 36A      -0.897800
      3 O           -7.8050    -3.9820     1.3120 o          1 36A      -0.833300
      4 N1           3.5460     1.0830     1.5850 nb         1 36A      -0.823000
      5 C2           3.1580     2.3160     1.2620 ca         1 36A       0.692900
      6 N3           1.9800     2.7150     0.8190 nb         1 36A      -0.734000
      7 C4           1.1220     1.7020     0.7150 ca         1 36A       0.452800
      8 C5           1.3770     0.3740     1.0190 ca         1 36A      -0.219200
      9 C6           2.6730     0.0800     1.4790 ca         1 36A       0.766200
     10 N6           3.0490    -1.1610     1.8150 nu         1 36A      -0.867900
     11 N7           0.2630    -0.3960     0.8090 nc         1 36A      -0.556100
     12 C8          -0.6360     0.4430     0.3840 cd         1 36A       0.428700
     13 N9          -0.1790     1.7310     0.3050 na         1 36A      -0.263000
     14 CA          -6.6040    -2.5880    -0.2230 c3         1 36A       0.013500
     15 CB          -5.7340    -1.5070     0.4270 c3         1 36A      -0.045400
     16 CD          -3.8800     1.8530    -1.1250 c3         1 36A      -0.028300
     17 SD          -4.4070     0.8830     0.3120 ss         1 36A      -0.338200
     18 CG          -5.3950    -0.3830    -0.5380 c3         1 36A       0.032700
     19 C1          -0.9050     2.8940    -0.1510 c5         1 36A       0.267800
     20 C7          -1.0360     2.9810    -1.6740 c5         1 36A       0.053100
     21 O2           0.0760     3.6310    -2.2110 oh         1 36A      -0.572800
     22 C27          4.3830    -1.4910     2.2420 c3         1 36A       0.284100
     23 C28          5.4120    -1.4770     1.1360 ca         1 36A      -0.079300
     24 C29          5.0620    -1.8030    -0.1700 ca         1 36A      -0.107000
     25 C3          -2.3600     3.7390    -1.8180 c5         1 36A       0.084100
     26 O3          -2.1860     5.1060    -1.5570 oh         1 36A      -0.584800
     27 C30          6.0380    -1.8280    -1.1530 ca         1 36A       0.030400
     28 C31          7.3640    -1.5380    -0.8720 ca         1 36A      -0.126000
     29 C32          7.7050    -1.2140     0.4340 ca         1 36A      -0.123000
     30 C33          6.7390    -1.1800     1.4280 ca         1 36A      -0.118000
     31 CL34         5.5850    -2.2350    -2.7790 cl         1 36A      -0.120400
     32 C9          -3.1630     3.1200    -0.6820 c5         1 36A       0.159100
     33 O4          -2.2080     2.8500     0.3490 os         1 36A      -0.379600
     34 OXT         -5.6680    -4.4620     0.9030 o          1 36A      -0.833300
     35 HN          -8.3410    -2.6750    -1.2570 hn         1 36A       0.330300
     36 HNA         -8.4720    -1.9600     0.1700 hn         1 36A       0.330300
     37 H2           3.9130     3.0870     1.3780 h5         1 36A       0.039100
     38 HN6          2.3730    -1.9000     1.7210 hn         1 36A       0.466800
     39 H8          -1.6590     0.1880     0.1440 h5         1 36A       0.097800
     40 HA          -6.0790    -2.9320    -1.1220 h1         1 36A       0.033700
     41 HB          -6.2580    -1.1060     1.3030 hc         1 36A       0.055700
     42 HBA         -4.8120    -1.9620     0.7930 hc         1 36A       0.055700
     43 HD          -3.2460     1.2320    -1.7630 h1         1 36A       0.056700
     44 HDA         -4.7540     2.1410    -1.7130 h1         1 36A       0.056700
     45 HG          -4.8100    -0.7720    -1.3750 h1         1 36A       0.055200
     46 HGA         -6.3030     0.0660    -0.9400 h1         1 36A       0.055200
     47 H1          -0.3590     3.7640     0.2310 h2         1 36A       0.114700
     48 H5          -1.1510     1.9720    -2.0890 h1         1 36A       0.060700
     49 HO2          0.1320     3.4270    -3.1500 ho         1 36A       0.411000
     50 H27          4.7000    -0.8160     3.0390 h1         1 36A       0.061200
     51 H27A         4.3380    -2.4890     2.6790 h1         1 36A       0.061200
     52 H29          4.0340    -2.0320    -0.4210 ha         1 36A       0.154000
     53 H3          -2.8290     3.5620    -2.7950 h1         1 36A       0.055700
     54 HO3         -1.4040     5.4060    -2.0350 ho         1 36A       0.419000
     55 H31          8.1130    -1.5600    -1.6510 ha         1 36A       0.142000
     56 H32          8.7340    -0.9790     0.6720 ha         1 36A       0.130000
     57 H33          7.0190    -0.9150     2.4410 ha         1 36A       0.133000
     58 H4          -3.8960     3.8230    -0.2780 h1         1 36A       0.105700
@<TRIPOS>BOND
     1     1     3 1   
     2     1    14 1   
     3     1    34 1   
     4     2    14 1   
     5     2    35 1   
     6     2    36 1   
     7     4     5 ar  
     8     4     9 ar  
     9     5     6 ar  
    10     5    37 1   
    11     6     7 ar  
    12     7     8 ar  
    13     7    13 1   
    14     8     9 ar  
    15     8    11 1   
    16     9    10 1   
    17    10    22 1   
    18    10    38 1   
    19    11    12 2   
    20    12    13 1   
    21    12    39 1   
    22    13    19 1   
    23    14    15 1   
    24    14    40 1   
    25    15    18 1   
    26    15    41 1   
    27    15    42 1   
    28    16    17 1   
    29    16    32 1   
    30    16    43 1   
    31    16    44 1   
    32    17    18 1   
    33    18    45 1   
    34    18    46 1   
    35    19    20 1   
    36    19    33 1   
    37    19    47 1   
    38    20    21 1   
    39    20    25 1   
    40    20    48 1   
    41    21    49 1   
    42    22    23 1   
    43    22    50 1   
    44    22    51 1   
    45    23    24 ar  
    46    23    30 ar  
    47    24    27 ar  
    48    24    52 1   
    49    25    26 1   
    50    25    32 1   
    51    25    53 1   
    52    26    54 1   
    53    27    28 ar  
    54    27    31 1   
    55    28    29 ar  
    56    28    55 1   
    57    29    30 ar  
    58    29    56 1   
    59    30    57 1   
    60    32    33 1   
    61    32    58 1   
@<TRIPOS>SUBSTRUCTURE
     1 36A         1 TEMP              0 ****  ****    0 ROOT
