@<TRIPOS>MOLECULE
36A
   58    61     1     0     0
SMALL
No Charge or Current Charge


@<TRIPOS>ATOM
      1 C           -2.3890    -3.8380     1.0480 c          1 36A       0.694000
      2 N           -2.3000    -3.3780    -1.5360 n8         1 36A      -1.008200
      3 O           -3.3410    -4.6060     0.9890 o          1 36A      -0.728000
      4 N1           2.8920     0.8970     1.1290 nb         1 36A      -0.297000
      5 C2           2.7410     2.1380     0.6140 ca         1 36A       0.166900
      6 N3           1.5980     2.8600     0.5650 nb         1 36A      -0.208000
      7 C4           0.5020     2.2690     1.0840 ca         1 36A       0.124500
      8 C5           0.5510     1.0140     1.6370 ca         1 36A      -0.088600
      9 C6           1.7840     0.3290     1.6440 ca         1 36A       0.437900
     10 N6           1.8850    -0.9460     2.1890 nu         1 36A      -0.923100
     11 N7          -0.6780     0.5990     2.1310 nc         1 36A      -0.556100
     12 C8          -1.4620     1.6570     1.8490 cd         1 36A       0.428700
     13 N9          -0.7950     2.7080     1.1900 na         1 36A      -0.292300
     14 CA          -2.1760    -2.8140    -0.1420 c3         1 36A       0.013500
     15 CB          -3.1070    -1.5870     0.0370 c3         1 36A      -0.045400
     16 CD          -2.8880     2.3870    -1.3730 c3         1 36A       0.019600
     17 SD          -3.8530     1.0480    -0.5280 ss         1 36A      -0.434000
     18 CG          -2.7480    -0.3970    -0.8750 c3         1 36A       0.080600
     19 C1          -1.3790     3.9890     0.7850 c5         1 36A       0.320300
     20 C7          -0.8730     4.6100    -0.5810 c5         1 36A       0.076300
     21 O2          -0.0960     5.8190    -0.4310 oh         1 36A      -0.695000
     22 C27          2.8870    -1.9680     1.8510 c3         1 36A       0.284100
     23 C28          2.6440    -2.5300     0.4540 ca         1 36A      -0.079300
     24 C29          1.7510    -3.6050     0.2670 ca         1 36A      -0.089000
     25 C3          -2.1990     4.9100    -1.3500 c5         1 36A       0.107300
     26 O3          -2.6330     6.2380    -1.0380 oh         1 36A      -0.707000
     27 C30          1.5350    -4.1330    -1.0170 ca         1 36A       0.122000
     28 C31          2.2030    -3.5880    -2.1260 ca         1 36A      -0.108000
     29 C32          3.0930    -2.5160    -1.9490 ca         1 36A      -0.105000
     30 C33          3.3150    -1.9910    -0.6630 ca         1 36A      -0.100000
     31 Cl34         0.4360    -5.4880    -1.2370 cl         1 36A      -0.212000
     32 C9          -3.1320     3.8030    -0.7710 c5         1 36A       0.182300
     33 O4          -2.8100     3.8340     0.6400 os         1 36A      -0.426000
     34 OXT         -1.5420    -3.8910     1.9290 o          1 36A      -0.728000
     35 HN          -1.5970    -4.1190    -1.6510 hn         1 36A       0.385500
     36 HNA         -3.1880    -3.8910    -1.5950 hn         1 36A       0.385500
     37 H2           3.6320     2.6060     0.1970 h5         1 36A       0.039100
     38 HN6          0.9800    -1.2890     2.5150 hn         1 36A       0.522000
     39 H8          -2.5170     1.7310     2.0900 h5         1 36A       0.097800
     40 HA          -1.1440    -2.4490    -0.0470 h1         1 36A       0.033700
     41 HB          -4.1480    -1.8830    -0.1370 hc         1 36A       0.055700
     42 HBA         -3.0450    -1.2520     1.0790 hc         1 36A       0.055700
     43 HD          -1.8220     2.1380    -1.3140 h1         1 36A       0.056700
     44 HDA         -3.1630     2.3980    -2.4360 h1         1 36A       0.056700
     45 HG          -1.7060    -0.1040    -0.6900 h1         1 36A       0.055200
     46 HGA         -2.8470    -0.6780    -1.9310 h1         1 36A       0.055200
     47 H1          -1.1770     4.6810     1.6120 h2         1 36A       0.114700
     48 H5          -0.2970     3.8610    -1.1440 h1         1 36A       0.060700
     49 HO2          0.8240     5.5520    -0.1880 ho         1 36A       0.510000
     50 H27          3.9020    -1.5510     1.9150 h1         1 36A       0.061200
     51 H27A         2.8340    -2.7930     2.5760 h1         1 36A       0.061200
     52 H29          1.2260    -4.0350     1.1170 ha         1 36A       0.136000
     53 H3          -2.0670     4.7980    -2.4350 h1         1 36A       0.055700
     54 HO3         -1.7930     6.6590    -0.7180 ho         1 36A       0.518000
     55 H31          2.0340    -3.9990    -3.1180 ha         1 36A       0.124000
     56 H32          3.6140    -2.0930    -2.8060 ha         1 36A       0.112000
     57 H33          4.0100    -1.1640    -0.5350 ha         1 36A       0.115000
     58 H4          -4.1910     4.0590    -0.9060 h1         1 36A       0.105700
@<TRIPOS>BOND
     1     1     3 1   
     2     1    14 1   
     3     1    34 1   
     4     2    14 1   
     5     2    35 1   
     6     2    36 1   
     7     4     5 ar  
     8     4     9 ar  
     9     5     6 ar  
    10     5    37 1   
    11     6     7 ar  
    12     7     8 ar  
    13     7    13 1   
    14     8     9 ar  
    15     8    11 1   
    16     9    10 1   
    17    10    22 1   
    18    10    38 1   
    19    11    12 2   
    20    12    13 1   
    21    12    39 1   
    22    13    19 1   
    23    14    15 1   
    24    14    40 1   
    25    15    18 1   
    26    15    41 1   
    27    15    42 1   
    28    16    17 1   
    29    16    32 1   
    30    16    43 1   
    31    16    44 1   
    32    17    18 1   
    33    18    45 1   
    34    18    46 1   
    35    19    20 1   
    36    19    33 1   
    37    19    47 1   
    38    20    21 1   
    39    20    25 1   
    40    20    48 1   
    41    21    49 1   
    42    22    23 1   
    43    22    50 1   
    44    22    51 1   
    45    23    24 ar  
    46    23    30 ar  
    47    24    27 ar  
    48    24    52 1   
    49    25    26 1   
    50    25    32 1   
    51    25    53 1   
    52    26    54 1   
    53    27    28 ar  
    54    27    31 1   
    55    28    29 ar  
    56    28    55 1   
    57    29    30 ar  
    58    29    56 1   
    59    30    57 1   
    60    32    33 1   
    61    32    58 1   
@<TRIPOS>SUBSTRUCTURE
     1 36A         1 TEMP              0 ****  ****    0 ROOT
