@<TRIPOS>MOLECULE
36C
   36    38     1     0     0
SMALL
bcc


@<TRIPOS>ATOM
      1 FAW         -7.6980    -1.3160     0.0150 f          1 36C      -0.155900
      2 CAV         -6.3570    -1.2710     0.0010 ca         1 36C       0.130900
      3 CAY         -5.6760    -1.2520     1.2020 ca         1 36C      -0.176500
      4 CAZ         -4.2900    -1.2120     1.1770 ca         1 36C      -0.081000
      5 CAU         -5.7000    -1.2500    -1.2140 ca         1 36C      -0.176500
      6 CAT         -4.3140    -1.2090    -1.2150 ca         1 36C      -0.081000
      7 CAS         -3.5920    -1.1940    -0.0260 ca         1 36C      -0.105300
      8 CAR         -2.0910    -1.1170    -0.0400 c3         1 36C       0.286100
      9 NAQ         -1.6750     0.2630     0.0250 nu         1 36C      -0.873900
     10 CAP         -0.3910     0.6260     0.0330 ca         1 36C       0.602900
     11 CAC         -0.0370     2.0460     0.0960 ca         1 36C       0.245500
     12 CAB         -1.0870     3.1680     0.1470 c          1 36C       0.833100
     13 OAA         -2.2890     2.8110     0.1340 o          1 36C      -0.786800
     14 OBA         -0.6540     4.3210     0.1950 o          1 36C      -0.786800
     15 NAD          1.2040     2.4010     0.1080 nb         1 36C      -0.604000
     16 CAE          2.1740     1.4480     0.0580 ca         1 36C       0.248300
     17 CAF          3.5240     1.8260     0.0690 ca         1 36C      -0.133300
     18 CAG          4.5160     0.8770     0.0140 ca         1 36C      -0.147000
     19 NAO          0.5330    -0.3080    -0.0180 nb         1 36C      -0.817000
     20 CAN          1.8240     0.0840    -0.0080 ca         1 36C       0.348300
     21 CAM          2.8510    -0.8760    -0.0660 ca         1 36C      -0.144300
     22 CAH          4.1690    -0.4830    -0.0550 ca         1 36C      -0.194300
     23 CAI          5.2250    -1.5460    -0.1220 c3         1 36C       0.717200
     24 FAJ          5.1200    -2.2690    -1.2450 f          1 36C      -0.245300
     25 FAK          6.4620    -1.0440    -0.0920 f          1 36C      -0.245300
     26 FAL          5.1220    -2.4060     0.8980 f          1 36C      -0.245300
     27 H1          -6.2160    -1.2720     2.1400 ha         1 36C       0.142000
     28 H2          -3.7470    -1.2000     2.1140 ha         1 36C       0.138500
     29 H3          -6.2580    -1.2690    -2.1400 ha         1 36C       0.142000
     30 H4          -3.7890    -1.1940    -2.1630 ha         1 36C       0.138500
     31 H5          -1.6750    -1.6770     0.8030 h1         1 36C       0.045200
     32 H6          -1.6960    -1.5920    -0.9440 h1         1 36C       0.045200
     33 H7          -2.3370     1.0380     0.0590 hn         1 36C       0.516800
     34 H9           3.7690     2.8790     0.1200 ha         1 36C       0.146000
     35 H10          5.5500     1.1880     0.0240 ha         1 36C       0.132000
     36 H11          2.5680    -1.9200    -0.1200 ha         1 36C       0.144000
@<TRIPOS>BOND
     1     1     2 1   
     2     2     3 ar  
     3     2     5 ar  
     4     3     4 ar  
     5     3    27 1   
     6     4     7 ar  
     7     4    28 1   
     8     5     6 ar  
     9     5    29 1   
    10     6     7 ar  
    11     6    30 1   
    12     7     8 1   
    13     8     9 1   
    14     8    31 1   
    15     8    32 1   
    16     9    10 1   
    17     9    33 1   
    18    10    11 ar  
    19    10    19 ar  
    20    11    12 1   
    21    11    15 ar  
    22    12    13 1   
    23    12    14 1   
    24    15    16 ar  
    25    16    17 ar  
    26    16    20 ar  
    27    17    18 ar  
    28    17    34 1   
    29    18    22 ar  
    30    18    35 1   
    31    19    20 ar  
    32    20    21 ar  
    33    21    22 ar  
    34    21    36 1   
    35    22    23 1   
    36    23    24 1   
    37    23    25 1   
    38    23    26 1   
@<TRIPOS>SUBSTRUCTURE
     1 36C         1 TEMP              0 ****  ****    0 ROOT
