@<TRIPOS>MOLECULE
36C
   36    38     1     0     0
SMALL
No Charge or Current Charge


@<TRIPOS>ATOM
      1 FAW         -7.8010    -1.3350    -0.0560 f          1 36C      -0.191000
      2 CAV         -6.4510    -1.2930    -0.0290 ca         1 36C       0.166000
      3 CAY         -5.7800    -1.2120     1.2000 ca         1 36C      -0.158500
      4 CAZ         -4.3750    -1.1690     1.2300 ca         1 36C      -0.063000
      5 CAU         -5.7270    -1.3310    -1.2300 ca         1 36C      -0.158500
      6 CAT         -4.3220    -1.2880    -1.2030 ca         1 36C      -0.063000
      7 CAS         -3.6390    -1.2080     0.0280 ca         1 36C      -0.105300
      8 CAR         -2.1180    -1.1600     0.0580 c3         1 36C       0.286100
      9 NAQ         -1.6670     0.2300    -0.0430 nu         1 36C      -0.929100
     10 CAP         -0.3710     0.7280    -0.0050 ca         1 36C       0.602900
     11 CAC         -0.0230     2.1200     0.0930 ca         1 36C       0.245500
     12 CAB         -1.1290     3.1920     0.1700 c          1 36C       0.622500
     13 OAA         -2.3080     2.8470     0.1910 o          1 36C      -0.681500
     14 OBA         -0.8080     4.3760     0.2140 o          1 36C      -0.681500
     15 NAD          1.3020     2.5070     0.1180 nb         1 36C      -0.604000
     16 CAE          2.2320     1.5180     0.0490 ca         1 36C       0.183000
     17 CAF          3.5990     1.8530     0.0680 ca         1 36C      -0.050000
     18 CAG          4.5920     0.8620    -0.0010 ca         1 36C      -0.129000
     19 NAO          0.5530    -0.2530    -0.0730 nb         1 36C      -0.817000
     20 CAN          1.8570     0.1360    -0.0450 ca         1 36C       0.283000
     21 CAM          2.8690    -0.8420    -0.1130 ca         1 36C      -0.061000
     22 CAH          4.2370    -0.4990    -0.0850 ca         1 36C      -0.194300
     23 CAI          5.3080    -1.5940    -0.1710 c3         1 36C       0.353300
     24 FAJ          5.5330    -1.9600    -1.4520 f          1 36C      -0.124000
     25 FAK          6.4970    -1.2020     0.3430 f          1 36C      -0.124000
     26 FAL          4.9480    -2.7110     0.5020 f          1 36C      -0.124000
     27 H1          -6.3470    -1.1830     2.1270 ha         1 36C       0.124000
     28 H2          -3.8570    -1.1050     2.1860 ha         1 36C       0.120500
     29 H3          -6.2540    -1.3920    -2.1790 ha         1 36C       0.124000
     30 H4          -3.7630    -1.3140    -2.1370 ha         1 36C       0.120500
     31 H5          -1.7570    -1.6100     0.9930 h1         1 36C       0.045200
     32 H6          -1.7170    -1.7530    -0.7760 h1         1 36C       0.045200
     33 H7          -2.3740     0.9710     0.0400 hn         1 36C       0.572000
     34 H9           3.8910     2.8980     0.1350 ha         1 36C       0.128000
     35 H10          5.6370     1.1630     0.0100 ha         1 36C       0.114000
     36 H11          2.5750    -1.8860    -0.1900 ha         1 36C       0.126000
@<TRIPOS>BOND
     1     1     2 1   
     2     2     3 ar  
     3     2     5 ar  
     4     3     4 ar  
     5     3    27 1   
     6     4     7 ar  
     7     4    28 1   
     8     5     6 ar  
     9     5    29 1   
    10     6     7 ar  
    11     6    30 1   
    12     7     8 1   
    13     8     9 1   
    14     8    31 1   
    15     8    32 1   
    16     9    10 1   
    17     9    33 1   
    18    10    11 ar  
    19    10    19 ar  
    20    11    12 1   
    21    11    15 ar  
    22    12    13 1   
    23    12    14 1   
    24    15    16 ar  
    25    16    17 ar  
    26    16    20 ar  
    27    17    18 ar  
    28    17    34 1   
    29    18    22 ar  
    30    18    35 1   
    31    19    20 ar  
    32    20    21 ar  
    33    21    22 ar  
    34    21    36 1   
    35    22    23 1   
    36    23    24 1   
    37    23    25 1   
    38    23    26 1   
@<TRIPOS>SUBSTRUCTURE
     1 36C         1 TEMP              0 ****  ****    0 ROOT
