@<TRIPOS>MOLECULE
36D
   39    39     1     0     0
SMALL
No Charge or Current Charge


@<TRIPOS>ATOM
      1 N1          -1.4110    -0.6920    -2.0390 n8         1 36D      -1.010200
      2 C1          -1.1200    -0.7790    -0.5850 c3         1 36D       0.158500
      3 O1           0.0000    -2.9650    -0.9980 oh         1 36D      -0.672000
      4 C2          -2.3760    -1.2300     0.2130 c3         1 36D      -0.002100
      5 C3          -3.5390    -0.2680     0.1450 cc         1 36D      -0.153300
      6 S1          -3.4350     1.3500     0.8400 ss         1 36D       0.173000
      7 C4          -5.0940     1.7010     0.3640 cc         1 36D      -0.255000
      8 C5          -5.6580     0.6280    -0.2750 cd         1 36D      -0.131000
      9 C6          -4.7820    -0.4840    -0.3970 cd         1 36D      -0.146000
     10 C7           0.1150    -1.6930    -0.2980 c3         1 36D       0.040300
     11 C8           1.4380    -0.9520    -0.6570 c          1 36D       0.561100
     12 O2           1.8660    -0.9040    -1.8050 o          1 36D      -0.634100
     13 N2           2.1200    -0.4070     0.4150 ns         1 36D      -0.433900
     14 C9           3.3780     0.3750     0.3260 c3         1 36D      -0.048300
     15 C10          3.1120     1.9040     0.3090 c3         1 36D      -0.075400
     16 C11          2.2760     2.3980    -0.8950 c3         1 36D      -0.080400
     17 C12          2.0970     3.9280    -0.9160 c3         1 36D      -0.086100
     18 C13          4.3420    -0.0200     1.4860 c          1 36D       0.718000
     19 O3           3.9010    -0.0450     2.6280 o          1 36D      -0.718000
     20 O4           5.4760    -0.3750     1.1970 o          1 36D      -0.718000
     21 H1          -0.5380    -0.4830    -2.5370 hn         1 36D       0.407000
     22 H2          -1.6500    -1.6340    -2.3680 hn         1 36D       0.407000
     23 H4          -0.8610     0.2320    -0.2380 h1         1 36D       0.057700
     24 H5           0.5070    -2.8710    -1.8380 ho         1 36D       0.475000
     25 H6          -2.6910    -2.2200    -0.1370 hc         1 36D       0.058700
     26 H7          -2.0970    -1.3600     1.2660 hc         1 36D       0.058700
     27 H8          -5.5250     2.6680     0.5930 h4         1 36D       0.139000
     28 H9          -6.6770     0.6270    -0.6520 ha         1 36D       0.121000
     29 H10         -5.0680    -1.4160    -0.8740 ha         1 36D       0.129000
     30 H11          0.1510    -1.8750     0.7850 h1         1 36D       0.072700
     31 H12          1.7160    -0.5420     1.3350 hn         1 36D       0.297500
     32 H13          3.8880     0.1070    -0.6090 h1         1 36D       0.063700
     33 H14          2.6080     2.1920     1.2400 hc         1 36D       0.049700
     34 H15          4.0780     2.4230     0.3020 hc         1 36D       0.049700
     35 H16          2.7600     2.0830    -1.8280 hc         1 36D       0.030700
     36 H17          1.2830     1.9320    -0.8730 hc         1 36D       0.030700
     37 H18          1.4980     4.2300    -1.7830 hc         1 36D       0.021367
     38 H19          1.5850     4.2710    -0.0090 hc         1 36D       0.021367
     39 H20          3.0690     4.4320    -0.9780 hc         1 36D       0.021367
@<TRIPOS>BOND
     1     1     2 1   
     2     1    21 1   
     3     1    22 1   
     4     2     4 1   
     5     2    10 1   
     6     2    23 1   
     7     3    10 1   
     8     3    24 1   
     9     4     5 1   
    10     4    25 1   
    11     4    26 1   
    12     5     6 1   
    13     5     9 2   
    14     6     7 1   
    15     7     8 2   
    16     7    27 1   
    17     8     9 1   
    18     8    28 1   
    19     9    29 1   
    20    10    11 1   
    21    10    30 1   
    22    11    12 2   
    23    11    13 1   
    24    13    14 1   
    25    13    31 1   
    26    14    15 1   
    27    14    18 1   
    28    14    32 1   
    29    15    16 1   
    30    15    33 1   
    31    15    34 1   
    32    16    17 1   
    33    16    35 1   
    34    16    36 1   
    35    17    37 1   
    36    17    38 1   
    37    17    39 1   
    38    18    19 1   
    39    18    20 1   
@<TRIPOS>SUBSTRUCTURE
     1 36D         1 TEMP              0 ****  ****    0 ROOT
