@<TRIPOS>MOLECULE
36D
   39    39     1     0     0
SMALL
abcg2


@<TRIPOS>ATOM
      1 N1          -1.1440    -0.5500    -1.6400 n8         1 36D      -1.010200
      2 C1          -1.0580    -0.8060    -0.2180 c3         1 36D       0.158500
      3 O1          -0.2010    -3.0770    -0.3240 oh         1 36D      -0.672000
      4 C2          -2.4090    -1.2990     0.3080 c3         1 36D      -0.002100
      5 C3          -3.5250    -0.3420     0.0580 cc         1 36D      -0.153300
      6 S1          -3.5450     1.2220     0.7900 ss         1 36D       0.173000
      7 C4          -5.0270     1.6400     0.0320 cc         1 36D      -0.255000
      8 C5          -5.4860     0.6230    -0.7450 cd         1 36D      -0.131000
      9 C6          -4.6240    -0.5100    -0.7300 cd         1 36D      -0.146000
     10 C7           0.0520    -1.8000     0.1890 c3         1 36D       0.040300
     11 C8           1.4050    -1.3180    -0.3340 c          1 36D       0.561100
     12 O2           1.9770    -1.9630    -1.2080 o          1 36D      -0.634100
     13 N2           1.8460    -0.1640     0.1590 ns         1 36D      -0.433900
     14 C9           3.1430     0.3930    -0.1560 c3         1 36D      -0.048300
     15 C10          3.1300     1.8990     0.0990 c3         1 36D      -0.075400
     16 C11          2.0940     2.6580    -0.7230 c3         1 36D      -0.080400
     17 C12          2.1750     4.1640    -0.5120 c3         1 36D      -0.086100
     18 C13          4.2930    -0.3040     0.6210 c          1 36D       0.718000
     19 O3           3.9820    -1.1600     1.4650 o          1 36D      -0.718000
     20 O4           5.4380     0.0800     0.3140 o          1 36D      -0.718000
     21 H1          -0.3030    -0.0980    -1.9770 hn         1 36D       0.407000
     22 H2          -1.2330    -1.4210    -2.1500 hn         1 36D       0.407000
     23 H4          -0.8340     0.1470     0.2740 h1         1 36D       0.057700
     24 H5           0.4770    -3.2310    -1.0000 ho         1 36D       0.475000
     25 H6          -2.6650    -2.2470    -0.1690 hc         1 36D       0.058700
     26 H7          -2.3190    -1.5060     1.3790 hc         1 36D       0.058700
     27 H8          -5.4760     2.6060     0.2020 h4         1 36D       0.139000
     28 H9          -6.4050     0.6740    -1.3120 ha         1 36D       0.121000
     29 H10         -4.8100    -1.4180    -1.2870 ha         1 36D       0.129000
     30 H11          0.0970    -1.8440     1.2860 h1         1 36D       0.072700
     31 H12          1.3740     0.2050     0.9710 hn         1 36D       0.297500
     32 H13          3.3190     0.2350    -1.2240 h1         1 36D       0.063700
     33 H14          2.9660     2.0920     1.1660 hc         1 36D       0.049700
     34 H15          4.1260     2.2810    -0.1320 hc         1 36D       0.049700
     35 H16          2.2350     2.4240    -1.7820 hc         1 36D       0.030700
     36 H17          1.0880     2.3140    -0.4680 hc         1 36D       0.030700
     37 H18          1.4290     4.6900    -1.1080 hc         1 36D       0.021367
     38 H19          2.0040     4.4250     0.5340 hc         1 36D       0.021367
     39 H20          3.1570     4.5520    -0.7900 hc         1 36D       0.021367
@<TRIPOS>BOND
     1     1     2 1   
     2     1    21 1   
     3     1    22 1   
     4     2     4 1   
     5     2    10 1   
     6     2    23 1   
     7     3    10 1   
     8     3    24 1   
     9     4     5 1   
    10     4    25 1   
    11     4    26 1   
    12     5     6 1   
    13     5     9 2   
    14     6     7 1   
    15     7     8 2   
    16     7    27 1   
    17     8     9 1   
    18     8    28 1   
    19     9    29 1   
    20    10    11 1   
    21    10    30 1   
    22    11    12 2   
    23    11    13 1   
    24    13    14 1   
    25    13    31 1   
    26    14    15 1   
    27    14    18 1   
    28    14    32 1   
    29    15    16 1   
    30    15    33 1   
    31    15    34 1   
    32    16    17 1   
    33    16    35 1   
    34    16    36 1   
    35    17    37 1   
    36    17    38 1   
    37    17    39 1   
    38    18    19 1   
    39    18    20 1   
@<TRIPOS>SUBSTRUCTURE
     1 36D         1 TEMP              0 ****  ****    0 ROOT
