@<TRIPOS>MOLECULE
36E
   18    19     1     0     0
SMALL
bcc


@<TRIPOS>ATOM
      1 CAA          3.6600    -0.7450    -0.0100 ca         1 36E      -0.153000
      2 CAB          2.4720    -1.4460    -0.0110 ca         1 36E      -0.054000
      3 FAC         -2.7200    -1.2160     0.2870 f          1 36E      -0.220300
      4 CAD          3.6830     0.6610     0.0050 ca         1 36E      -0.097000
      5 CAE          2.5200     1.4070     0.0190 ca         1 36E      -0.136000
      6 CAF          1.3260     0.6920     0.0160 ca         1 36E      -0.064200
      7 CAG          1.2850    -0.7120     0.0020 ca         1 36E       0.057400
      8 FAH         -2.6960     0.8620     0.8740 f          1 36E      -0.220300
      9 CAJ         -0.7230    -0.0530     0.0210 cc         1 36E       0.294800
     10 NAK          0.0150     1.0820     0.0290 na         1 36E      -0.238300
     11 NAL         -0.0190    -1.1440     0.0060 nd         1 36E      -0.512100
     12 FAM         -2.6730     0.3330    -1.2100 f          1 36E      -0.220300
     13 HAA          4.5980    -1.2840    -0.0210 ha         1 36E       0.137000
     14 HAB          2.4560    -2.5280    -0.0220 ha         1 36E       0.152000
     15 HAD          4.6360     1.1730     0.0060 ha         1 36E       0.135000
     16 HAE          2.5400     2.4880     0.0310 ha         1 36E       0.140000
     17 HNAK        -0.3240     2.0320     0.0440 hn         1 36E       0.320700
     18 CAI         -2.2160    -0.0240    -0.0040 c3         1 36E       0.677600
@<TRIPOS>BOND
     1     1     2 ar  
     2     1     4 ar  
     3     1    13 1   
     4     2     7 ar  
     5     2    14 1   
     6     3    18 1   
     7     4     5 ar  
     8     4    15 1   
     9     5     6 ar  
    10     5    16 1   
    11     6     7 ar  
    12     6    10 1   
    13     7    11 1   
    14     8    18 1   
    15     9    10 1   
    16     9    11 2   
    17     9    18 1   
    18    10    17 1   
    19    12    18 1   
@<TRIPOS>SUBSTRUCTURE
     1 36E         1 TEMP              0 ****  ****    0 ROOT
