@<TRIPOS>MOLECULE
36E
   18    19     1     0     0
SMALL
No Charge or Current Charge


@<TRIPOS>ATOM
      1 CAA          3.7220    -0.7410    -0.0610 ca         1 36E      -0.135000
      2 CAB          2.4940    -1.4390    -0.1230 ca         1 36E      -0.036000
      3 FAC         -2.8190    -0.9840     0.7690 f          1 36E      -0.099000
      4 CAD          3.7410     0.6700     0.0610 ca         1 36E      -0.079000
      5 CAE          2.5310     1.3930     0.1210 ca         1 36E      -0.118000
      6 CAF          1.3390     0.6620     0.0560 ca         1 36E      -0.064200
      7 CAG          1.3050    -0.6970    -0.0610 ca         1 36E       0.057400
      8 FAH         -2.7720     1.1650     0.4320 f          1 36E      -0.099000
      9 CAJ         -0.7630    -0.0520    -0.0060 cc         1 36E       0.294800
     10 NAK          0.0470     1.0860     0.0900 na         1 36E      -0.288600
     11 NAL         -0.0040    -1.1690    -0.1040 nd         1 36E      -0.512100
     12 FAM         -2.7790    -0.2000    -1.2630 f          1 36E      -0.099000
     13 HAA          4.6580    -1.2930    -0.1070 ha         1 36E       0.119000
     14 HAB          2.4690    -2.5210    -0.2170 ha         1 36E       0.134000
     15 HAD          4.6910     1.1980     0.1070 ha         1 36E       0.117000
     16 HAE          2.5270     2.4770     0.2140 ha         1 36E       0.122000
     17 HNAK        -0.2780     2.0420     0.1690 hn         1 36E       0.371000
     18 CAI         -2.2860    -0.0180    -0.0160 c3         1 36E       0.313700
@<TRIPOS>BOND
     1     1     2 ar  
     2     1     4 ar  
     3     1    13 1   
     4     2     7 ar  
     5     2    14 1   
     6     3    18 1   
     7     4     5 ar  
     8     4    15 1   
     9     5     6 ar  
    10     5    16 1   
    11     6     7 ar  
    12     6    10 1   
    13     7    11 1   
    14     8    18 1   
    15     9    10 1   
    16     9    11 2   
    17     9    18 1   
    18    10    17 1   
    19    12    18 1   
@<TRIPOS>SUBSTRUCTURE
     1 36E         1 TEMP              0 ****  ****    0 ROOT
