@<TRIPOS>MOLECULE
36F
   66    70     1     0     0
SMALL
bcc


@<TRIPOS>ATOM
      1 CAA          9.3250     3.7790     0.1040 c3         1 36F      -0.048800
      2 OAB        -10.8420    -1.9680     1.8670 o          1 36F      -0.655500
      3 OAC          7.9580    -3.2550    -0.1110 o          1 36F      -0.586500
      4 CAD         10.5910     1.7110     0.7820 ca         1 36F      -0.132000
      5 CAE         10.7350     0.3290     0.9270 ca         1 36F      -0.090000
      6 CAF          8.3980     1.4710    -0.2090 ca         1 36F      -0.128000
      7 CAG          0.5870    -0.8340     0.2330 cc         1 36F      -0.247600
      8 CAH         -4.3040    -0.7040    -0.6890 c3         1 36F      -0.075400
      9 CAI         -2.9300    -0.0490    -0.6410 c3         1 36F      -0.072400
     10 CAJ         -5.4510     0.2970    -0.6580 c3         1 36F      -0.075400
     11 CAK          3.9640    -0.4350    -0.5490 c3         1 36F      -0.095400
     12 CAL          5.3510    -0.4800     0.0760 c3         1 36F      -0.101400
     13 CAN         -6.8110    -0.3890    -0.6250 c3         1 36F      -0.059400
     14 CAO          2.9290     0.0580     0.4510 c3         1 36F       0.055300
     15 CAP          6.4000    -0.8910    -0.9480 c3         1 36F       0.123000
     16 CAQ         -9.7350     2.1650     0.2590 c5         1 36F      -0.008300
     17 NAR         -0.0030     0.5310    -1.3800 nd         1 36F      -0.360000
     18 NAS          1.2140     0.8210    -1.0590 nc         1 36F      -0.208800
     19 NAT        -10.9760     0.1400     0.9460 ns         1 36F      -0.589900
     20 NAU         -9.4810    -1.2420     0.1550 ns         1 36F      -0.586900
     21 OAV          9.5590    -1.8000     0.5160 os         1 36F      -0.281200
     22 SAW         -8.0680     1.6780     0.7700 ss         1 36F      -0.304200
     23 CAX        -10.4770    -1.1160     1.0720 c          1 36F       0.826500
     24 CAY          9.4480     2.2870     0.2280 ca         1 36F      -0.061300
     25 CAZ         -0.4400    -0.4890    -0.6100 cd         1 36F       0.275600
     26 CBA          8.3470    -2.1210    -0.0140 c          1 36F       0.827600
     27 CBB          9.6870    -0.4410     0.4940 ca         1 36F       0.046100
     28 CBC          8.5430     0.1080    -0.0640 ca         1 36F      -0.006400
     29 CBD         -7.9860     0.5700    -0.6760 c5         1 36F       0.023400
     30 NBE          1.5830     0.0090    -0.0890 na         1 36F       0.103400
     31 NBF          7.7300    -0.9650    -0.3830 n          1 36F      -0.383000
     32 CBG        -10.4330     0.8720    -0.1680 c5         1 36F       0.101700
     33 CBH         -9.3610    -0.1120    -0.7290 c5         1 36F       0.100700
     34 HAA          9.1110     4.0770    -0.9230 hc         1 36F       0.046367
     35 HAAA         8.5120     4.1590     0.7250 hc         1 36F       0.046367
     36 HAAB        10.2410     4.2810     0.4140 hc         1 36F       0.046367
     37 HAD         11.3960     2.3530     1.1150 ha         1 36F       0.139000
     38 HAE         11.6270    -0.1030     1.3590 ha         1 36F       0.157000
     39 HAF          7.5050     1.9030    -0.6420 ha         1 36F       0.144000
     40 HAG          0.6760    -1.5800     1.0040 h4         1 36F       0.184000
     41 HAH         -4.3840    -1.3200    -1.5920 hc         1 36F       0.035700
     42 HAHA        -4.4040    -1.3930     0.1560 hc         1 36F       0.035700
     43 HAI         -2.8300     0.6650    -1.4640 hc         1 36F       0.051700
     44 HAIA        -2.8330     0.5310     0.2820 hc         1 36F       0.051700
     45 HAJ         -5.3410     0.9460     0.2180 hc         1 36F       0.048200
     46 HAJA        -5.3890     0.9540    -1.5320 hc         1 36F       0.048200
     47 HAK          3.9670     0.2250    -1.4200 hc         1 36F       0.063700
     48 HAKA         3.6820    -1.4310    -0.9020 hc         1 36F       0.063700
     49 HAL          5.6040     0.4990     0.4920 hc         1 36F       0.053700
     50 HALA         5.3610    -1.1880     0.9090 hc         1 36F       0.053700
     51 HAM         -1.9280    -1.8180     0.0750 hc         1 36F       0.047700
     52 HAMA        -1.8910    -1.6290    -1.6610 hc         1 36F       0.047700
     53 HAN         -6.8930    -1.0670    -1.4820 hc         1 36F       0.050700
     54 HANA        -6.8850    -1.0120     0.2710 hc         1 36F       0.050700
     55 HAO          2.9310    -0.5620     1.3470 h1         1 36F       0.066700
     56 HAOA         3.1410     1.0820     0.7570 h1         1 36F       0.066700
     57 HAP          6.1630    -1.8670    -1.3690 h1         1 36F       0.068200
     58 HAPA         6.4250    -0.1830    -1.7800 h1         1 36F       0.068200
     59 HAQ        -10.2570     2.6610     1.0770 h1         1 36F       0.077700
     60 HAQA        -9.6740     2.8590    -0.5810 h1         1 36F       0.077700
     61 HNAT       -11.8250     0.4160     1.4110 hn         1 36F       0.341500
     62 HNAU        -9.0960    -2.1450    -0.0660 hn         1 36F       0.340500
     63 HBD         -7.8970     1.2020    -1.5660 h1         1 36F       0.068700
     64 HBG        -11.2060     1.0940    -0.9080 h1         1 36F       0.060700
     65 HBH         -9.5760    -0.3980    -1.7620 h1         1 36F       0.059700
     66 CAM         -1.8040    -1.0790    -0.7190 c3         1 36F      -0.088700
@<TRIPOS>BOND
     1     1    24 1   
     2     1    34 1   
     3     1    35 1   
     4     1    36 1   
     5     2    23 2   
     6     3    26 2   
     7     4     5 ar  
     8     4    24 ar  
     9     4    37 1   
    10     5    27 ar  
    11     5    38 1   
    12     6    24 ar  
    13     6    28 ar  
    14     6    39 1   
    15     7    25 2   
    16     7    30 1   
    17     7    40 1   
    18     8     9 1   
    19     8    10 1   
    20     8    41 1   
    21     8    42 1   
    22     9    43 1   
    23     9    44 1   
    24     9    66 1   
    25    10    13 1   
    26    10    45 1   
    27    10    46 1   
    28    11    12 1   
    29    11    14 1   
    30    11    47 1   
    31    11    48 1   
    32    12    15 1   
    33    12    49 1   
    34    12    50 1   
    35    13    29 1   
    36    13    53 1   
    37    13    54 1   
    38    14    30 1   
    39    14    55 1   
    40    14    56 1   
    41    15    31 1   
    42    15    57 1   
    43    15    58 1   
    44    16    22 1   
    45    16    32 1   
    46    16    59 1   
    47    16    60 1   
    48    17    18 2   
    49    17    25 1   
    50    18    30 1   
    51    19    23 1   
    52    19    32 1   
    53    19    61 1   
    54    20    23 1   
    55    20    33 1   
    56    20    62 1   
    57    21    26 1   
    58    21    27 1   
    59    22    29 1   
    60    25    66 1   
    61    26    31 1   
    62    27    28 ar  
    63    28    31 1   
    64    29    33 1   
    65    29    63 1   
    66    32    33 1   
    67    32    64 1   
    68    33    65 1   
    69    51    66 1   
    70    52    66 1   
@<TRIPOS>SUBSTRUCTURE
     1 36F         1 TEMP              0 ****  ****    0 ROOT
