@<TRIPOS>MOLECULE
36F
   66    70     1     0     0
SMALL
No Charge or Current Charge


@<TRIPOS>ATOM
      1 CAA          9.9190     3.0340    -1.1910 c3         1 36F      -0.048800
      2 OAB        -10.5840    -2.8700     0.9440 o          1 36F      -0.580000
      3 OAC          7.3450    -3.0540     1.8870 o          1 36F      -0.511000
      4 CAD         10.6140     1.6400     0.8250 ca         1 36F      -0.114000
      5 CAE         10.4550     0.5360     1.6930 ca         1 36F      -0.072000
      6 CAF          8.5950     1.0030    -0.4220 ca         1 36F      -0.110000
      7 CAG          0.5240    -0.2770    -0.4540 cc         1 36F      -0.215000
      8 CAH         -4.2920    -0.3820    -1.2500 c3         1 36F      -0.075400
      9 CAI         -2.9080     0.2560    -0.9990 c3         1 36F      -0.072400
     10 CAJ         -5.4490     0.4090    -0.6000 c3         1 36F      -0.075400
     11 CAK          3.8770    -0.3040    -0.4580 c3         1 36F      -0.095400
     12 CAL          5.2160    -0.2260     0.3090 c3         1 36F      -0.101400
     13 CAN         -6.8350    -0.2300    -0.8510 c3         1 36F      -0.059400
     14 CAO          2.8220     0.6920     0.0720 c3         1 36F       0.084600
     15 CAP          6.2730    -1.2190    -0.2200 c3         1 36F       0.123000
     16 CAQ         -9.6660     1.3240     1.5820 c5         1 36F       0.039600
     17 NAR          0.0710     1.1640    -2.1070 nd         1 36F      -0.360000
     18 NAS          1.2570     1.4860    -1.6650 nc         1 36F      -0.208800
     19 NAT        -10.9730    -0.6250     1.0610 ns         1 36F      -0.522900
     20 NAU         -9.5110    -1.3800    -0.4100 ns         1 36F      -0.519900
     21 OAV          9.0340    -1.4640     2.1150 os         1 36F      -0.281200
     22 SAW         -7.9880     0.5410     1.6060 ss         1 36F      -0.400000
     23 CAX        -10.3710    -1.7320     0.5720 c          1 36F       0.617000
     24 CAY          9.6990     1.8690    -0.2370 ca         1 36F      -0.061300
     25 CAZ         -0.4050     0.0890    -1.3850 cd         1 36F       0.210300
     26 CBA          7.9250    -2.0380     1.5290 c          1 36F       0.685100
     27 CBB          9.3420    -0.2840     1.4890 ca         1 36F       0.046100
     28 CBC          8.4100    -0.0240     0.5110 ca         1 36F      -0.006400
     29 CBD         -8.0230     0.5640    -0.2450 c5         1 36F       0.071300
     30 NBE          1.5450     0.6170    -0.6550 na         1 36F       0.124800
     31 NBF          7.5480    -1.1410     0.5120 n          1 36F      -0.316000
     32 CBG        -10.4800     0.6130     0.4490 c5         1 36F       0.101700
     33 CBH         -9.4640     0.0690    -0.6390 c5         1 36F       0.100700
     34 HAA          9.4790     2.8350    -2.1750 hc         1 36F       0.046367
     35 HAAA         9.4620     3.9500    -0.7980 hc         1 36F       0.046367
     36 HAAB        10.9870     3.2290    -1.3420 hc         1 36F       0.046367
     37 HAD         11.4680     2.3020     0.9570 ha         1 36F       0.121000
     38 HAE         11.1790     0.3180     2.4740 ha         1 36F       0.139000
     39 HAF          7.9060     1.1350    -1.2520 ha         1 36F       0.126000
     40 HAG          0.5370    -1.0590     0.2930 h4         1 36F       0.166000
     41 HAH         -4.4660    -0.4520    -2.3310 hc         1 36F       0.035700
     42 HAHA        -4.2930    -1.4070    -0.8590 hc         1 36F       0.035700
     43 HAI         -2.9070     1.2820    -1.3890 hc         1 36F       0.051700
     44 HAIA        -2.7330     0.3250     0.0820 hc         1 36F       0.051700
     45 HAJ         -5.2690     0.4790     0.4800 hc         1 36F       0.048200
     46 HAJA        -5.4490     1.4340    -0.9910 hc         1 36F       0.048200
     47 HAK          4.0550    -0.1040    -1.5220 hc         1 36F       0.063700
     48 HAKA         3.4760    -1.3240    -0.3860 hc         1 36F       0.063700
     49 HAL          5.6130     0.7940     0.2390 hc         1 36F       0.053700
     50 HALA         5.0390    -0.4290     1.3720 hc         1 36F       0.053700
     51 HAM         -1.7590    -1.5620    -1.2670 hc         1 36F       0.047700
     52 HAMA        -1.9210    -0.6020    -2.7290 hc         1 36F       0.047700
     53 HAN         -6.9830    -0.3190    -1.9340 hc         1 36F       0.050700
     54 HANA        -6.8240    -1.2530    -0.4540 hc         1 36F       0.050700
     55 HAO          2.6260     0.4880     1.1320 h1         1 36F       0.066700
     56 HAOA         3.2120     1.7150    -0.0060 h1         1 36F       0.066700
     57 HAP          5.8790    -2.2420    -0.1520 h1         1 36F       0.068200
     58 HAPA         6.4680    -1.0120    -1.2800 h1         1 36F       0.068200
     59 HAQ        -10.1500     1.2490     2.5650 h1         1 36F       0.077700
     60 HAQA        -9.5470     2.3910     1.3510 h1         1 36F       0.077700
     61 HNAT       -11.6500    -0.7130     1.8080 hn         1 36F       0.341500
     62 HNAU        -8.9800    -2.0950    -0.8890 hn         1 36F       0.340500
     63 HBD         -7.9170     1.6100    -0.5640 h1         1 36F       0.068700
     64 HBG        -11.2830     1.2360     0.0330 h1         1 36F       0.060700
     65 HBH         -9.7450     0.3430    -1.6640 h1         1 36F       0.059700
     66 CAM         -1.7500    -0.5340    -1.6480 c3         1 36F      -0.088700
@<TRIPOS>BOND
     1     1    24 1   
     2     1    34 1   
     3     1    35 1   
     4     1    36 1   
     5     2    23 2   
     6     3    26 2   
     7     4     5 ar  
     8     4    24 ar  
     9     4    37 1   
    10     5    27 ar  
    11     5    38 1   
    12     6    24 ar  
    13     6    28 ar  
    14     6    39 1   
    15     7    25 2   
    16     7    30 1   
    17     7    40 1   
    18     8     9 1   
    19     8    10 1   
    20     8    41 1   
    21     8    42 1   
    22     9    43 1   
    23     9    44 1   
    24     9    66 1   
    25    10    13 1   
    26    10    45 1   
    27    10    46 1   
    28    11    12 1   
    29    11    14 1   
    30    11    47 1   
    31    11    48 1   
    32    12    15 1   
    33    12    49 1   
    34    12    50 1   
    35    13    29 1   
    36    13    53 1   
    37    13    54 1   
    38    14    30 1   
    39    14    55 1   
    40    14    56 1   
    41    15    31 1   
    42    15    57 1   
    43    15    58 1   
    44    16    22 1   
    45    16    32 1   
    46    16    59 1   
    47    16    60 1   
    48    17    18 2   
    49    17    25 1   
    50    18    30 1   
    51    19    23 1   
    52    19    32 1   
    53    19    61 1   
    54    20    23 1   
    55    20    33 1   
    56    20    62 1   
    57    21    26 1   
    58    21    27 1   
    59    22    29 1   
    60    25    66 1   
    61    26    31 1   
    62    27    28 ar  
    63    28    31 1   
    64    29    33 1   
    65    29    63 1   
    66    32    33 1   
    67    32    64 1   
    68    33    65 1   
    69    51    66 1   
    70    52    66 1   
@<TRIPOS>SUBSTRUCTURE
     1 36F         1 TEMP              0 ****  ****    0 ROOT
