@<TRIPOS>MOLECULE
36G
   39    41     1     0     0
SMALL
abcg2


@<TRIPOS>ATOM
      1 CAF         -1.0870    -1.7020     0.6310 c6         1 36G       0.100000
      2 CAE         -1.6900    -2.3650    -0.5960 c6         1 36G      -0.104400
      3 CAC         -3.4890    -0.6240    -0.2750 ca         1 36G      -0.111300
      4 CAB         -4.7880    -0.1410    -0.4370 ca         1 36G      -0.096000
      5 CAA         -5.1410     1.1400    -0.0540 ca         1 36G      -0.124000
      6 CAI         -4.1830     1.9640     0.5270 ca         1 36G      -0.096000
      7 CAJ         -2.8930     1.5030     0.7080 ca         1 36G      -0.105000
      8 CAK         -2.5300     0.2170     0.2940 ca         1 36G      -0.018000
      9 OAT         -0.2900     1.5200    -0.5970 o          1 36G      -0.601100
     10 NAP          1.0480     0.1960     0.6680 ns         1 36G      -0.157000
     11 CA0         -3.1740    -2.0420    -0.6760 c6         1 36G      -0.025100
     12 CAQ          2.2950     0.6570     0.2190 ca         1 36G      -0.054000
     13 CAU          2.5670     1.9990    -0.0070 ca         1 36G      -0.074000
     14 CAV          3.8250     2.4010    -0.4400 ca         1 36G      -0.129000
     15 CAW          4.8230     1.4610    -0.6260 ca         1 36G      -0.087000
     16 CAS          4.5740     0.1140    -0.3860 ca         1 36G      -0.181000
     17 CAR          3.3120    -0.2960     0.0280 ca         1 36G       0.102100
     18 NAH         -1.2160    -0.2500     0.5190 n          1 36G      -0.244400
     19 OAG          2.9670    -1.5730     0.2770 os         1 36G      -0.358100
     20 CAH          3.9570    -2.5760     0.1650 c3         1 36G       0.151900
     21 HAF1        -1.5980    -2.0350     1.5380 h1         1 36G       0.055200
     22 HAF2        -0.0440    -1.9880     0.7290 h1         1 36G       0.055200
     23 HAE1        -1.1640    -2.0090    -1.4850 hc         1 36G       0.053700
     24 HAE2        -1.5400    -3.4440    -0.5470 hc         1 36G       0.053700
     25 HA01        -3.5520    -2.2320    -1.6830 hc         1 36G       0.050200
     26 HA02        -3.7270    -2.7170    -0.0150 hc         1 36G       0.050200
     27 HAB         -5.5330    -0.7940    -0.8790 ha         1 36G       0.108000
     28 HAA         -6.1550     1.4910    -0.1950 ha         1 36G       0.113000
     29 HAI         -4.4430     2.9620     0.8530 ha         1 36G       0.114000
     30 HAJ         -2.1630     2.1410     1.1880 ha         1 36G       0.125000
     31 HAP          1.0750    -0.5620     1.3310 hn         1 36G       0.163000
     32 HAU          1.7970     2.7360     0.1630 ha         1 36G       0.140000
     33 HAV          4.0210     3.4500    -0.6160 ha         1 36G       0.119000
     34 HAW          5.8070     1.7660    -0.9560 ha         1 36G       0.113000
     35 HAS          5.3690    -0.6040    -0.5340 ha         1 36G       0.116000
     36 HAH1         3.4750    -3.5160     0.4230 h1         1 36G       0.041700
     37 HAH2         4.3490    -2.6500    -0.8530 h1         1 36G       0.041700
     38 HAH3         4.7890    -2.4040     0.8520 h1         1 36G       0.041700
     39 CAO         -0.1540     0.5540     0.1320 c          1 36G       0.660100
@<TRIPOS>BOND
     1     1     2 1   
     2     1    18 1   
     3     1    21 1   
     4     1    22 1   
     5     2    11 1   
     6     2    23 1   
     7     2    24 1   
     8     3     4 ar  
     9     3     8 ar  
    10     3    11 1   
    11     4     5 ar  
    12     4    27 1   
    13     5     6 ar  
    14     5    28 1   
    15     6     7 ar  
    16     6    29 1   
    17     7     8 ar  
    18     7    30 1   
    19     8    18 1   
    20     9    39 2   
    21    10    12 1   
    22    10    31 1   
    23    10    39 1   
    24    11    25 1   
    25    11    26 1   
    26    12    13 ar  
    27    12    17 ar  
    28    13    14 ar  
    29    13    32 1   
    30    14    15 ar  
    31    14    33 1   
    32    15    16 ar  
    33    15    34 1   
    34    16    17 ar  
    35    16    35 1   
    36    17    19 1   
    37    18    39 1   
    38    19    20 1   
    39    20    36 1   
    40    20    37 1   
    41    20    38 1   
@<TRIPOS>SUBSTRUCTURE
     1 36G         1 TEMP              0 ****  ****    0 ROOT
