@<TRIPOS>MOLECULE
36G
   39    41     1     0     0
SMALL
No Charge or Current Charge


@<TRIPOS>ATOM
      1 CAF         -1.0980    -1.6980     0.3770 c6         1 36G       0.100000
      2 CAE         -1.8620    -2.3390    -0.7950 c6         1 36G      -0.104400
      3 CAC         -3.6760    -0.6080    -0.1840 ca         1 36G      -0.111300
      4 CAB         -5.0060    -0.1510    -0.2490 ca         1 36G      -0.096000
      5 CAA         -5.3440     1.1270     0.2210 ca         1 36G      -0.124000
      6 CAI         -4.3510     1.9570     0.7560 ca         1 36G      -0.096000
      7 CAJ         -3.0220     1.5080     0.8270 ca         1 36G      -0.105000
      8 CAK         -2.6670     0.2080     0.3970 ca         1 36G      -0.018000
      9 OAT         -0.3570     1.8370    -0.2450 o          1 36G      -0.601100
     10 NAP          1.0830     0.0930     0.1200 ns         1 36G      -0.157000
     11 CA0         -3.3710    -2.0270    -0.6890 c6         1 36G      -0.025100
     12 CAQ          2.3960     0.6080    -0.0890 ca         1 36G      -0.054000
     13 CAU          2.6640     1.9590    -0.4120 ca         1 36G      -0.074000
     14 CAV          3.9860     2.3950    -0.6020 ca         1 36G      -0.129000
     15 CAW          5.0530     1.4940    -0.4740 ca         1 36G      -0.087000
     16 CAS          4.8010     0.1510    -0.1530 ca         1 36G      -0.181000
     17 CAR          3.4750    -0.2960     0.0410 ca         1 36G       0.102100
     18 NAH         -1.2810    -0.2200     0.3230 n          1 36G      -0.244400
     19 OAG          3.1870    -1.6120     0.3590 os         1 36G      -0.358100
     20 CAH          4.2110    -2.6120     0.5110 c3         1 36G       0.151900
     21 HAF1        -1.5010    -2.0730     1.3290 h1         1 36G       0.055200
     22 HAF2        -0.0480    -2.0110     0.3290 h1         1 36G       0.055200
     23 HAE1        -1.4680    -1.9480    -1.7430 hc         1 36G       0.053700
     24 HAE2        -1.7010    -3.4250    -0.8090 hc         1 36G       0.053700
     25 HA01        -3.8480    -2.1930    -1.6640 hc         1 36G       0.050200
     26 HA02        -3.8340    -2.7460     0.0020 hc         1 36G       0.050200
     27 HAB         -5.7810    -0.7890    -0.6680 ha         1 36G       0.108000
     28 HAA         -6.3740     1.4730     0.1650 ha         1 36G       0.113000
     29 HAI         -4.6080     2.9520     1.1130 ha         1 36G       0.114000
     30 HAJ         -2.2770     2.1740     1.2540 ha         1 36G       0.125000
     31 HAP          1.0850    -0.8830     0.3780 hn         1 36G       0.163000
     32 HAU          1.8670     2.6880    -0.5180 ha         1 36G       0.140000
     33 HAV          4.1830     3.4360    -0.8500 ha         1 36G       0.119000
     34 HAW          6.0750     1.8370    -0.6230 ha         1 36G       0.113000
     35 HAS          5.6460    -0.5250    -0.0590 ha         1 36G       0.116000
     36 HAH1         3.7610    -3.5810     0.7620 h1         1 36G       0.041700
     37 HAH2         4.7810    -2.7320    -0.4190 h1         1 36G       0.041700
     38 HAH3         4.9040    -2.3410     1.3180 h1         1 36G       0.041700
     39 CAO         -0.1860     0.6600     0.0490 c          1 36G       0.660100
@<TRIPOS>BOND
     1     1     2 1   
     2     1    18 1   
     3     1    21 1   
     4     1    22 1   
     5     2    11 1   
     6     2    23 1   
     7     2    24 1   
     8     3     4 ar  
     9     3     8 ar  
    10     3    11 1   
    11     4     5 ar  
    12     4    27 1   
    13     5     6 ar  
    14     5    28 1   
    15     6     7 ar  
    16     6    29 1   
    17     7     8 ar  
    18     7    30 1   
    19     8    18 1   
    20     9    39 2   
    21    10    12 1   
    22    10    31 1   
    23    10    39 1   
    24    11    25 1   
    25    11    26 1   
    26    12    13 ar  
    27    12    17 ar  
    28    13    14 ar  
    29    13    32 1   
    30    14    15 ar  
    31    14    33 1   
    32    15    16 ar  
    33    15    34 1   
    34    16    17 ar  
    35    16    35 1   
    36    17    19 1   
    37    18    39 1   
    38    19    20 1   
    39    20    36 1   
    40    20    37 1   
    41    20    38 1   
@<TRIPOS>SUBSTRUCTURE
     1 36G         1 TEMP              0 ****  ****    0 ROOT
