@<TRIPOS>MOLECULE
36H
   68    71     1     0     0
SMALL
abcg2


@<TRIPOS>ATOM
      1 N12         22.9070   -16.0920     3.4780 nu         1 36H      -0.931900
      2 C13         23.1570   -15.1870     2.4590 ca         1 36H       0.353000
      3 C15         22.8440   -14.6160     0.1320 ca         1 36H      -0.038000
      4 C20         24.3720   -10.4450    -2.6930 c6         1 36H       0.188500
      5 C21         25.1160   -11.7850    -2.7100 c6         1 36H      -0.090900
      6 C22         25.1120   -12.4110    -1.3230 c6         1 36H       0.190800
      7 C24         23.9220   -10.4750    -5.0990 c3         1 36H       0.167100
      8 C26         25.7280    -7.6920    -3.4440 c3         1 36H       0.165600
      9 C28         24.0950   -13.1910     1.5260 ca         1 36H       0.167000
     10 C1          27.3620   -10.4070     6.6150 c3         1 36H      -0.111600
     11 C3          25.2610    -9.8520     5.3390 c3         1 36H      -0.111600
     12 N4          25.2750   -11.5950     7.0780 na         1 36H       0.136800
     13 C5          24.7580   -12.5540     6.3110 cc         1 36H      -0.103000
     14 C6          24.4350   -13.6200     7.1400 cd         1 36H      -0.305500
     15 C7          24.8240   -13.1630     8.4200 cd         1 36H       0.274900
     16 N8          25.3290   -11.9490     8.3630 nc         1 36H      -0.535800
     17 C9          23.8390   -14.8630     6.6700 ca         1 36H       0.282500
     18 N10         23.6600   -14.9240     5.3460 nb         1 36H      -0.260000
     19 C11         23.1160   -16.0070     4.8270 ca         1 36H       0.386900
     20 C14         22.6280   -15.4730     1.1950 ca         1 36H      -0.191000
     21 C16         23.5800   -13.4390     0.2600 ca         1 36H       0.173000
     22 N17         23.7440   -12.5880    -0.8580 nh         1 36H      -0.780400
     23 C18         23.0090   -11.3320    -0.7840 c6         1 36H       0.190800
     24 C19         22.9620   -10.6640    -2.1500 c6         1 36H      -0.090900
     25 N23         24.3640    -9.7090    -3.9520 n3         1 36H      -0.725600
     26 C25         25.6030    -8.9950    -4.2100 c3         1 36H       0.177800
     27 O27         24.7470    -6.7860    -3.8960 oh         1 36H      -0.646000
     28 F29         24.8170   -12.0760     1.7330 f          1 36H      -0.189000
     29 C30         23.9130   -14.0240     2.6110 ca         1 36H      -0.189000
     30 N31         22.7230   -17.0810     5.5160 nb         1 36H      -0.240000
     31 C32         22.9060   -17.0150     6.8210 ca         1 36H       0.145900
     32 C33         23.4630   -15.9310     7.4930 ca         1 36H      -0.223300
     33 C34         23.6130   -15.9700     8.9800 c3         1 36H      -0.025800
     34 H121        22.4350   -16.9400     3.2000 hn         1 36H       0.513000
     35 H151        22.4250   -14.8520    -0.8380 ha         1 36H       0.129000
     36 H201        24.8840    -9.8050    -1.9640 h1         1 36H       0.047700
     37 H212        24.6410   -12.4750    -3.4130 hc         1 36H       0.051450
     38 H211        26.1510   -11.6520    -3.0370 hc         1 36H       0.051450
     39 H221        25.5970   -13.3890    -1.3540 h1         1 36H       0.035950
     40 H222        25.7060   -11.7780    -0.6470 h1         1 36H       0.035950
     41 H242        22.9800   -10.9800    -4.8830 h1         1 36H       0.029367
     42 H243        23.7410    -9.8030    -5.9380 h1         1 36H       0.029367
     43 H241        24.6350   -11.2390    -5.4410 h1         1 36H       0.029367
     44 H261        25.6390    -7.8750    -2.3650 h1         1 36H       0.014200
     45 H262        26.7430    -7.3060    -3.6080 h1         1 36H       0.014200
     46 H013        27.7730   -10.7220     7.5740 hc         1 36H       0.051367
     47 H011        27.6810   -11.1160     5.8500 hc         1 36H       0.051367
     48 H012        27.7850    -9.4320     6.3720 hc         1 36H       0.051367
     49 H021        25.5530    -9.6030     7.4410 h1         1 36H       0.079700
     50 H032        25.6280    -8.8490     5.1270 hc         1 36H       0.051367
     51 H031        25.5670   -10.4930     4.5110 hc         1 36H       0.051367
     52 H033        24.1720    -9.8120     5.3660 hc         1 36H       0.051367
     53 H051        24.6390   -12.4370     5.2480 h4         1 36H       0.170000
     54 H071        24.7560   -13.6580     9.3740 h4         1 36H       0.040100
     55 H141        22.0410   -16.3720     1.0460 ha         1 36H       0.119000
     56 H182        23.4560   -10.6330    -0.0590 h1         1 36H       0.035950
     57 H181        21.9940   -11.5420    -0.4400 h1         1 36H       0.035950
     58 H192        22.4460    -9.7050    -2.0680 hc         1 36H       0.051450
     59 H191        22.3810   -11.2930    -2.8310 hc         1 36H       0.051450
     60 H252        26.4960    -9.6020    -3.9970 h1         1 36H       0.037200
     61 H251        25.6520    -8.7630    -5.2770 h1         1 36H       0.037200
     62 H271        24.8120    -5.9860    -3.3670 ho         1 36H       0.436000
     63 H301        24.3490   -13.7670     3.5600 ha         1 36H       0.159000
     64 H321        22.5870   -17.8830     7.3920 h4         1 36H       0.021100
     65 H342        23.0720   -15.1580     9.4690 hc         1 36H       0.042700
     66 H341        23.2180   -16.9050     9.3750 hc         1 36H       0.042700
     67 H343        24.6570   -15.9030     9.2920 hc         1 36H       0.042700
     68 C2          25.8430   -10.3120     6.6650 c3         1 36H       0.097300
@<TRIPOS>BOND
     1     1     2 1   
     2     1    19 1   
     3     1    34 1   
     4     2    20 ar  
     5     2    29 ar  
     6     3    20 ar  
     7     3    21 ar  
     8     3    35 1   
     9     4     5 1   
    10     4    24 1   
    11     4    25 1   
    12     4    36 1   
    13     5     6 1   
    14     5    37 1   
    15     5    38 1   
    16     6    22 1   
    17     6    39 1   
    18     6    40 1   
    19     7    25 1   
    20     7    41 1   
    21     7    42 1   
    22     7    43 1   
    23     8    26 1   
    24     8    27 1   
    25     8    44 1   
    26     8    45 1   
    27     9    21 ar  
    28     9    28 1   
    29     9    29 ar  
    30    10    46 1   
    31    10    47 1   
    32    10    48 1   
    33    10    68 1   
    34    11    50 1   
    35    11    51 1   
    36    11    52 1   
    37    11    68 1   
    38    12    13 1   
    39    12    16 1   
    40    12    68 1   
    41    13    14 2   
    42    13    53 1   
    43    14    15 1   
    44    14    17 1   
    45    15    16 2   
    46    15    54 1   
    47    17    18 ar  
    48    17    32 ar  
    49    18    19 ar  
    50    19    30 ar  
    51    20    55 1   
    52    21    22 1   
    53    22    23 1   
    54    23    24 1   
    55    23    56 1   
    56    23    57 1   
    57    24    58 1   
    58    24    59 1   
    59    25    26 1   
    60    26    60 1   
    61    26    61 1   
    62    27    62 1   
    63    29    63 1   
    64    30    31 ar  
    65    31    32 ar  
    66    31    64 1   
    67    32    33 1   
    68    33    65 1   
    69    33    66 1   
    70    33    67 1   
    71    49    68 1   
@<TRIPOS>SUBSTRUCTURE
     1 36H         1 TEMP              0 ****  ****    0 ROOT
