@<TRIPOS>MOLECULE
36H
   68    71     1     0     0
SMALL
No Charge or Current Charge


@<TRIPOS>ATOM
      1 N12         22.9360   -15.8600     3.4080 nu         1 36H      -0.931900
      2 C13         23.2080   -14.9160     2.4170 ca         1 36H       0.353000
      3 C15         22.6100   -13.9400     0.2620 ca         1 36H      -0.038000
      4 C20         24.1830   -10.3680    -3.0820 c6         1 36H       0.188500
      5 C21         25.2280   -11.4710    -2.7550 c6         1 36H      -0.090900
      6 C22         25.2470   -11.7760    -1.2390 c6         1 36H       0.190800
      7 C24         23.7330   -11.0190    -5.4780 c3         1 36H       0.167100
      8 C26         25.8610    -7.9980    -4.2160 c3         1 36H       0.165600
      9 C28         24.5450   -13.1120     1.4690 ca         1 36H       0.167000
     10 C1          27.4210   -10.6190     7.2370 c3         1 36H      -0.111600
     11 C3          25.2350    -9.5380     6.4640 c3         1 36H      -0.111600
     12 N4          25.2180   -11.7200     7.6950 na         1 36H       0.136800
     13 C5          25.0680   -12.7050     6.7250 cc         1 36H      -0.103000
     14 C6          24.3770   -13.7050     7.3590 cd         1 36H      -0.305500
     15 C7          24.1010   -13.2270     8.6610 cd         1 36H       0.274900
     16 N8          24.6140   -12.0350     8.8940 nc         1 36H      -0.535800
     17 C9          23.8950   -14.9460     6.7230 ca         1 36H       0.282500
     18 N10         23.6720   -14.8540     5.3960 nb         1 36H      -0.260000
     19 C11         23.1750   -15.9340     4.7740 ca         1 36H       0.386900
     20 C14         22.3740   -14.8690     1.2920 ca         1 36H      -0.191000
     21 C16         23.6960   -13.0440     0.3290 ca         1 36H       0.173000
     22 N17         23.8870   -12.1260    -0.7440 nh         1 36H      -0.780400
     23 C18         22.8440   -11.1080    -1.0470 c6         1 36H       0.190800
     24 C19         22.7910   -10.8140    -2.5630 c6         1 36H      -0.090900
     25 N23         24.1600    -9.9580    -4.5290 n3         1 36H      -0.725600
     26 C25         25.3990    -9.2630    -5.0050 c3         1 36H       0.177800
     27 O27         24.8600    -6.9630    -4.2230 oh         1 36H      -0.646000
     28 F29         25.6000   -12.2730     1.6120 f          1 36H      -0.189000
     29 C30         24.3020   -14.0410     2.4930 ca         1 36H      -0.189000
     30 N31         22.8520   -17.1040     5.3420 nb         1 36H      -0.240000
     31 C32         23.0580   -17.2030     6.6680 ca         1 36H       0.145900
     32 C33         23.5830   -16.1380     7.4250 ca         1 36H      -0.223300
     33 C34         23.8330   -16.3400     8.9160 c3         1 36H      -0.025800
     34 H121        22.3560   -16.6320     3.0810 hn         1 36H       0.513000
     35 H151        21.9510   -13.9180    -0.6010 ha         1 36H       0.129000
     36 H201        24.4510    -9.4870    -2.4800 h1         1 36H       0.047700
     37 H212        24.9960   -12.3940    -3.3030 hc         1 36H       0.051450
     38 H211        26.2330   -11.1610    -3.0650 hc         1 36H       0.051450
     39 H221        25.9450   -12.6060    -1.0570 h1         1 36H       0.035950
     40 H222        25.6280   -10.8970    -0.6980 h1         1 36H       0.035950
     41 H242        22.7390   -11.4100    -5.2290 h1         1 36H       0.029367
     42 H243        23.6750   -10.6180    -6.4990 h1         1 36H       0.029367
     43 H241        24.4460   -11.8540    -5.4870 h1         1 36H       0.029367
     44 H261        26.1130    -8.2770    -3.1850 h1         1 36H       0.014200
     45 H262        26.7820    -7.6220    -4.6790 h1         1 36H       0.014200
     46 H013        27.8910   -11.2180     8.0260 hc         1 36H       0.051367
     47 H011        27.5730   -11.1310     6.2800 hc         1 36H       0.051367
     48 H012        27.9330    -9.6510     7.1950 hc         1 36H       0.051367
     49 H021        25.8400    -9.8940     8.4870 h1         1 36H       0.079700
     50 H032        25.7200    -8.5560     6.4120 hc         1 36H       0.051367
     51 H031        25.2910   -10.0020     5.4710 hc         1 36H       0.051367
     52 H033        24.1780    -9.3820     6.7120 hc         1 36H       0.051367
     53 H051        25.4480   -12.6100     5.7150 h4         1 36H       0.170000
     54 H071        23.5250   -13.7010     9.4440 h4         1 36H       0.040100
     55 H141        21.5290   -15.5480     1.2120 ha         1 36H       0.119000
     56 H182        23.0610   -10.1780    -0.5010 h1         1 36H       0.035950
     57 H181        21.8540   -11.4560    -0.7180 h1         1 36H       0.035950
     58 H192        22.0470   -10.0310    -2.7590 hc         1 36H       0.051450
     59 H191        22.4490   -11.7180    -3.0810 hc         1 36H       0.051450
     60 H252        26.2380    -9.9720    -5.0160 h1         1 36H       0.037200
     61 H251        25.2560    -8.9510    -6.0490 h1         1 36H       0.037200
     62 H271        25.2150    -6.2200    -3.6890 ho         1 36H       0.436000
     63 H301        24.9830   -14.0800     3.3350 ha         1 36H       0.159000
     64 H321        22.8030   -18.1560     7.1280 h4         1 36H       0.021100
     65 H342        23.0080   -15.9340     9.5140 hc         1 36H       0.042700
     66 H341        23.9190   -17.4050     9.1640 hc         1 36H       0.042700
     67 H343        24.7650   -15.8620     9.2390 hc         1 36H       0.042700
     68 C2          25.9160   -10.4260     7.5290 c3         1 36H       0.097300
@<TRIPOS>BOND
     1     1     2 1   
     2     1    19 1   
     3     1    34 1   
     4     2    20 ar  
     5     2    29 ar  
     6     3    20 ar  
     7     3    21 ar  
     8     3    35 1   
     9     4     5 1   
    10     4    24 1   
    11     4    25 1   
    12     4    36 1   
    13     5     6 1   
    14     5    37 1   
    15     5    38 1   
    16     6    22 1   
    17     6    39 1   
    18     6    40 1   
    19     7    25 1   
    20     7    41 1   
    21     7    42 1   
    22     7    43 1   
    23     8    26 1   
    24     8    27 1   
    25     8    44 1   
    26     8    45 1   
    27     9    21 ar  
    28     9    28 1   
    29     9    29 ar  
    30    10    46 1   
    31    10    47 1   
    32    10    48 1   
    33    10    68 1   
    34    11    50 1   
    35    11    51 1   
    36    11    52 1   
    37    11    68 1   
    38    12    13 1   
    39    12    16 1   
    40    12    68 1   
    41    13    14 2   
    42    13    53 1   
    43    14    15 1   
    44    14    17 1   
    45    15    16 2   
    46    15    54 1   
    47    17    18 ar  
    48    17    32 ar  
    49    18    19 ar  
    50    19    30 ar  
    51    20    55 1   
    52    21    22 1   
    53    22    23 1   
    54    23    24 1   
    55    23    56 1   
    56    23    57 1   
    57    24    58 1   
    58    24    59 1   
    59    25    26 1   
    60    26    60 1   
    61    26    61 1   
    62    27    62 1   
    63    29    63 1   
    64    30    31 ar  
    65    31    32 ar  
    66    31    64 1   
    67    32    33 1   
    68    33    65 1   
    69    33    66 1   
    70    33    67 1   
    71    49    68 1   
@<TRIPOS>SUBSTRUCTURE
     1 36H         1 TEMP              0 ****  ****    0 ROOT
