@<TRIPOS>MOLECULE
36I
   36    39     1     0     0
SMALL
abcg2


@<TRIPOS>ATOM
      1 N1          -1.3510     1.7080    -0.0740 nb         1 36I      -0.186000
      2 C2          -1.4800     0.3980    -0.0620 cp         1 36I       0.241500
      3 N3          -0.4800    -0.4840    -0.1010 nb         1 36I      -0.282000
      4 C4           0.7810    -0.0770    -0.1480 ca         1 36I       0.437900
      5 C5           1.0240     1.3190    -0.1290 ca         1 36I      -0.330000
      6 C6          -0.0930     2.1610    -0.0870 ca         1 36I       0.162800
      7 CAA          0.2630     3.5430    -0.0090 cc         1 36I      -0.293800
      8 CAE         -2.8530    -0.1550    -0.0060 cp         1 36I      -0.150500
      9 CAF         -3.9570     0.6990     0.0190 ca         1 36I      -0.066000
     10 CAG         -5.2430     0.1870     0.0790 ca         1 36I      -0.128500
     11 CAH          1.6020     3.7170     0.0350 cd         1 36I      -0.146400
     12 SAI          2.4860     2.2400    -0.0280 ss         1 36I       0.088400
     13 CAM         -3.0680    -1.5330     0.0280 ca         1 36I      -0.066000
     14 CAN         -4.3560    -2.0440     0.0900 ca         1 36I      -0.128500
     15 CAO         -5.4490    -1.1870     0.1150 ca         1 36I      -0.092000
     16 CAP          1.3750    -2.4300    -0.0200 c6         1 36I       0.179800
     17 NAQ          1.7470    -1.0290    -0.1610 nh         1 36I      -0.774300
     18 CAR          3.0150    -0.8730    -0.8590 c6         1 36I       0.179800
     19 CAS          2.5160    -3.1900     0.6320 c6         1 36I       0.142600
     20 OAT          3.7280    -3.0440    -0.0720 os         1 36I      -0.443000
     21 CAU          4.0910    -1.6870    -0.1670 c6         1 36I       0.142600
     22 HAA         -0.4610     4.3440     0.0230 ha         1 36I       0.221000
     23 HAF         -3.8030     1.7690    -0.0060 ha         1 36I       0.131500
     24 HAG         -6.0880     0.8640     0.0980 ha         1 36I       0.113000
     25 HAH          2.1430     4.6490     0.1040 h4         1 36I       0.220000
     26 HAM         -2.2230    -2.2070     0.0080 ha         1 36I       0.131500
     27 HAN         -4.5060    -3.1150     0.1170 ha         1 36I       0.113000
     28 HAO         -6.4540    -1.5860     0.1640 ha         1 36I       0.112000
     29 HAPA         1.1340    -2.8640    -0.9990 h1         1 36I       0.061700
     30 HAR          2.9010    -1.2090    -1.8970 h1         1 36I       0.061700
     31 HARA         3.3370     0.1630    -0.9010 h1         1 36I       0.061700
     32 HAS          2.6300    -2.8460     1.6700 h1         1 36I       0.055950
     33 HASA         2.2760    -4.2530     0.6550 h1         1 36I       0.055950
     34 HAU          5.0160    -1.6320    -0.7430 h1         1 36I       0.055950
     35 HAUA         4.2830    -1.2630     0.8290 h1         1 36I       0.055950
     36 HAP          0.4900    -2.5160     0.6050 h1         1 36I       0.061700
@<TRIPOS>BOND
     1     1     2 ar  
     2     1     6 ar  
     3     2     3 ar  
     4     2     8 1   
     5     3     4 ar  
     6     4     5 ar  
     7     4    17 1   
     8     5     6 ar  
     9     5    12 1   
    10     6     7 1   
    11     7    11 2   
    12     7    22 1   
    13     8     9 ar  
    14     8    13 ar  
    15     9    10 ar  
    16     9    23 1   
    17    10    15 ar  
    18    10    24 1   
    19    11    12 1   
    20    11    25 1   
    21    13    14 ar  
    22    13    26 1   
    23    14    15 ar  
    24    14    27 1   
    25    15    28 1   
    26    16    17 1   
    27    16    19 1   
    28    16    29 1   
    29    16    36 1   
    30    17    18 1   
    31    18    21 1   
    32    18    30 1   
    33    18    31 1   
    34    19    20 1   
    35    19    32 1   
    36    19    33 1   
    37    20    21 1   
    38    21    34 1   
    39    21    35 1   
@<TRIPOS>SUBSTRUCTURE
     1 36I         1 TEMP              0 ****  ****    0 ROOT
