@<TRIPOS>MOLECULE
36I
   36    39     1     0     0
SMALL
No Charge or Current Charge


@<TRIPOS>ATOM
      1 N1          -1.3490     1.7300     0.0520 nb         1 36I      -0.186000
      2 C2          -1.5190     0.3880    -0.0210 cp         1 36I       0.241500
      3 N3          -0.5070    -0.5140    -0.0270 nb         1 36I      -0.282000
      4 C4           0.7600    -0.0540     0.0350 ca         1 36I       0.437900
      5 C5           0.9970     1.3250     0.1180 ca         1 36I      -0.330000
      6 C6          -0.0850     2.1730     0.1230 ca         1 36I       0.162800
      7 CAA          0.2840     3.5590     0.2360 cc         1 36I      -0.293800
      8 CAE         -2.9310    -0.1410    -0.0960 cp         1 36I      -0.150500
      9 CAF         -4.0550     0.7340    -0.0920 ca         1 36I      -0.066000
     10 CAG         -5.3680     0.2380    -0.1620 ca         1 36I      -0.128500
     11 CAH          1.6590     3.7170     0.3330 cd         1 36I      -0.146400
     12 SAI          2.5530     2.1670     0.2870 ss         1 36I       0.088400
     13 CAM         -3.1980    -1.5380    -0.1750 ca         1 36I      -0.066000
     14 CAN         -4.5130    -2.0290    -0.2460 ca         1 36I      -0.128500
     15 CAO         -5.5990    -1.1430    -0.2390 ca         1 36I      -0.092000
     16 CAP          1.5860    -2.3630     0.6360 c6         1 36I       0.179800
     17 NAQ          1.8000    -1.0060     0.0310 nh         1 36I      -0.774300
     18 CAR          2.7720    -1.0190    -1.1100 c6         1 36I       0.179800
     19 CAS          2.9330    -3.0910     0.9230 c6         1 36I       0.142600
     20 OAT          3.7650    -3.1190    -0.2620 os         1 36I      -0.443000
     21 CAU          4.0750    -1.7930    -0.7530 c6         1 36I       0.142600
     22 HAA         -0.4230     4.3860     0.2500 ha         1 36I       0.221000
     23 HAF         -3.9160     1.8110    -0.0330 ha         1 36I       0.131500
     24 HAG         -6.2090     0.9290    -0.1570 ha         1 36I       0.113000
     25 HAH          2.2160     4.6440     0.4310 h4         1 36I       0.220000
     26 HAM         -2.3810    -2.2570    -0.1830 ha         1 36I       0.131500
     27 HAN         -4.6880    -3.1010    -0.3050 ha         1 36I       0.113000
     28 HAO         -6.6170    -1.5250    -0.2940 ha         1 36I       0.112000
     29 HAPA         0.9830    -2.9880    -0.0390 h1         1 36I       0.061700
     30 HAR          2.3090    -1.4950    -1.9870 h1         1 36I       0.061700
     31 HARA         3.0440     0.0020    -1.4090 h1         1 36I       0.061700
     32 HAS          3.4720    -2.5730     1.7300 h1         1 36I       0.055950
     33 HASA         2.7380    -4.1210     1.2510 h1         1 36I       0.055950
     34 HAU          4.7130    -1.8780    -1.6440 h1         1 36I       0.055950
     35 HAUA         4.6370    -1.2430     0.0160 h1         1 36I       0.055950
     36 HAP          1.0320    -2.2760     1.5830 h1         1 36I       0.061700
@<TRIPOS>BOND
     1     1     2 ar  
     2     1     6 ar  
     3     2     3 ar  
     4     2     8 1   
     5     3     4 ar  
     6     4     5 ar  
     7     4    17 1   
     8     5     6 ar  
     9     5    12 1   
    10     6     7 1   
    11     7    11 2   
    12     7    22 1   
    13     8     9 ar  
    14     8    13 ar  
    15     9    10 ar  
    16     9    23 1   
    17    10    15 ar  
    18    10    24 1   
    19    11    12 1   
    20    11    25 1   
    21    13    14 ar  
    22    13    26 1   
    23    14    15 ar  
    24    14    27 1   
    25    15    28 1   
    26    16    17 1   
    27    16    19 1   
    28    16    29 1   
    29    16    36 1   
    30    17    18 1   
    31    18    21 1   
    32    18    30 1   
    33    18    31 1   
    34    19    20 1   
    35    19    32 1   
    36    19    33 1   
    37    20    21 1   
    38    21    34 1   
    39    21    35 1   
@<TRIPOS>SUBSTRUCTURE
     1 36I         1 TEMP              0 ****  ****    0 ROOT
