@<TRIPOS>MOLECULE
36J
   47    48     1     0     0
SMALL
abcg2


@<TRIPOS>ATOM
      1 CAO         -4.3230    -0.2310    -0.4740 c3         1 36J      -0.066400
      2 CAL         -3.1640    -1.2240    -0.6550 c3         1 36J      -0.074400
      3 CAM         -2.6200    -1.7530     0.6720 c3         1 36J      -0.096400
      4 CAV         -1.3280    -2.5540     0.5800 c3         1 36J       0.181300
      5 CAA         -1.1040    -3.4210     1.8040 c3         1 36J      -0.098100
      6 OAP         -0.1860    -1.6590     0.5190 os         1 36J      -0.460100
      7 CAQ          0.4510    -1.4380    -0.6200 c          1 36J       0.630700
      8 OAB          0.0860    -1.8500    -1.6930 o          1 36J      -0.474000
      9 CAU          1.7010    -0.6470    -0.4350 ca         1 36J      -0.195600
     10 CAS          2.8700    -1.1410    -1.0320 ca         1 36J       0.226100
     11 OAD          2.8170    -2.3430    -1.6260 oh         1 36J      -0.512100
     12 CAH          4.0600    -0.4240    -0.9820 ca         1 36J      -0.325000
     13 CAR          4.0920     0.8090    -0.3470 ca         1 36J       0.204100
     14 OAC          5.2090     1.5480    -0.2700 oh         1 36J      -0.526100
     15 CAI          2.9430     1.3120     0.2560 ca         1 36J      -0.195000
     16 CAT          1.7530     0.5950     0.2240 ca         1 36J       0.070200
     17 CAG          0.5760     1.2040     0.8760 ce         1 36J      -0.178200
     18 CAF          0.1790     2.4530     0.6330 c2         1 36J      -0.194200
     19 CAJ         -1.0060     3.1200     1.2620 c3         1 36J      -0.044200
     20 CAK         -2.2620     2.9940     0.3850 c3         1 36J      -0.070400
     21 CAN         -2.7750     1.5610     0.3910 c3         1 36J      -0.124400
     22 CAW         -3.9170     1.2390    -0.5650 c3         1 36J       0.177300
     23 OAE         -3.5660     1.4910    -1.9160 oh         1 36J      -0.659000
     24 H1          -5.0980    -0.4120    -1.2220 hc         1 36J       0.045700
     25 H2          -4.8010    -0.3910     0.4970 hc         1 36J       0.045700
     26 H3          -3.5010    -2.0790    -1.2460 hc         1 36J       0.057200
     27 H4          -2.3730    -0.7620    -1.2480 hc         1 36J       0.057200
     28 H5          -2.4740    -0.9450     1.3930 hc         1 36J       0.045700
     29 H6          -3.3800    -2.4040     1.1160 hc         1 36J       0.045700
     30 H7          -1.3370    -3.1800    -0.3140 h1         1 36J       0.069700
     31 H8          -1.9000    -4.1630     1.8770 hc         1 36J       0.044700
     32 H9          -0.1560    -3.9560     1.7450 hc         1 36J       0.044700
     33 H10         -1.1120    -2.8300     2.7210 hc         1 36J       0.044700
     34 H11          3.6880    -2.5950    -1.9540 ho         1 36J       0.469000
     35 H12          4.9580    -0.8340    -1.4330 ha         1 36J       0.117000
     36 H13          5.9390     1.1130    -0.7270 ho         1 36J       0.469000
     37 H14          2.9840     2.2610     0.7750 ha         1 36J       0.136000
     38 H15          0.0320     0.5990     1.5940 ha         1 36J       0.197000
     39 H16          0.7070     3.0340    -0.1190 ha         1 36J       0.173000
     40 H17         -1.2120     2.6880     2.2450 hc         1 36J       0.047200
     41 H18         -0.7770     4.1760     1.4210 hc         1 36J       0.047200
     42 H19         -3.0350     3.6730     0.7550 hc         1 36J       0.039200
     43 H20         -2.0140     3.3250    -0.6290 hc         1 36J       0.039200
     44 H21         -1.9390     0.8960     0.1680 hc         1 36J       0.054700
     45 H22         -3.1010     1.3170     1.4080 hc         1 36J       0.054700
     46 H23         -4.7920     1.8460    -0.2870 h1         1 36J       0.022700
     47 H24         -3.3800     2.4290    -2.0140 ho         1 36J       0.439000
@<TRIPOS>BOND
     1     1     2 1   
     2     1    22 1   
     3     1    24 1   
     4     1    25 1   
     5     2     3 1   
     6     2    26 1   
     7     2    27 1   
     8     3     4 1   
     9     3    28 1   
    10     3    29 1   
    11     4     5 1   
    12     4     6 1   
    13     4    30 1   
    14     5    31 1   
    15     5    32 1   
    16     5    33 1   
    17     6     7 1   
    18     7     8 2   
    19     7     9 1   
    20     9    10 ar  
    21     9    16 ar  
    22    10    11 1   
    23    10    12 ar  
    24    11    34 1   
    25    12    13 ar  
    26    12    35 1   
    27    13    14 1   
    28    13    15 ar  
    29    14    36 1   
    30    15    16 ar  
    31    15    37 1   
    32    16    17 1   
    33    17    18 2   
    34    17    38 1   
    35    18    19 1   
    36    18    39 1   
    37    19    20 1   
    38    19    40 1   
    39    19    41 1   
    40    20    21 1   
    41    20    42 1   
    42    20    43 1   
    43    21    22 1   
    44    21    44 1   
    45    21    45 1   
    46    22    23 1   
    47    22    46 1   
    48    23    47 1   
@<TRIPOS>SUBSTRUCTURE
     1 36J         1 TEMP              0 ****  ****    0 ROOT
