@<TRIPOS>MOLECULE
36J
   47    48     1     0     0
SMALL
No Charge or Current Charge


@<TRIPOS>ATOM
      1 CAO         -4.3960    -0.2790    -0.3410 c3         1 36J      -0.066400
      2 CAL         -3.2720    -1.3320    -0.5750 c3         1 36J      -0.074400
      3 CAM         -2.5430    -1.7850     0.7230 c3         1 36J      -0.096400
      4 CAV         -1.2730    -2.6570     0.5080 c3         1 36J       0.181300
      5 CAA         -1.0650    -3.6630     1.6570 c3         1 36J      -0.098100
      6 OAP         -0.0990    -1.8130     0.5310 os         1 36J      -0.460100
      7 CAQ          0.3780    -1.2650    -0.6350 c          1 36J       0.630700
      8 OAB         -0.1100    -1.4660    -1.7390 o          1 36J      -0.474000
      9 CAU          1.6850    -0.5580    -0.4470 ca         1 36J      -0.195600
     10 CAS          2.8570    -1.1280    -0.9780 ca         1 36J       0.226100
     11 OAD          2.8220    -2.3340    -1.6090 oh         1 36J      -0.512100
     12 CAH          4.0900    -0.4750    -0.8550 ca         1 36J      -0.325000
     13 CAR          4.1580     0.7590    -0.2040 ca         1 36J       0.204100
     14 OAC          5.3510     1.3980    -0.0850 oh         1 36J      -0.526100
     15 CAI          3.0030     1.3380     0.3290 ca         1 36J      -0.195000
     16 CAT          1.7610     0.6870     0.2200 ca         1 36J       0.070200
     17 CAG          0.5570     1.3400     0.7960 ce         1 36J      -0.178200
     18 CAF          0.2210     2.6340     0.5850 c2         1 36J      -0.194200
     19 CAJ         -1.0140     3.3350     1.1250 c3         1 36J      -0.044200
     20 CAK         -2.2860     3.0680     0.2830 c3         1 36J      -0.070400
     21 CAN         -2.7210     1.5830     0.3150 c3         1 36J      -0.124400
     22 CAW         -3.9780     1.2120    -0.5020 c3         1 36J       0.177300
     23 OAE         -3.7460     1.4870    -1.8860 oh         1 36J      -0.659000
     24 H1          -5.2140    -0.4800    -1.0440 hc         1 36J       0.045700
     25 H2          -4.8250    -0.4240     0.6590 hc         1 36J       0.045700
     26 H3          -3.7170    -2.2210    -1.0380 hc         1 36J       0.057200
     27 H4          -2.5580    -0.9410    -1.3060 hc         1 36J       0.057200
     28 H5          -2.2750    -0.9240     1.3430 hc         1 36J       0.045700
     29 H6          -3.2680    -2.3560     1.3150 hc         1 36J       0.045700
     30 H7          -1.3530    -3.2290    -0.4270 h1         1 36J       0.069700
     31 H8          -1.9030    -4.3700     1.7060 hc         1 36J       0.044700
     32 H9          -0.1460    -4.2400     1.5010 hc         1 36J       0.044700
     33 H10         -0.9920    -3.1470     2.6220 hc         1 36J       0.044700
     34 H11          3.7320    -2.5470    -1.9010 ho         1 36J       0.469000
     35 H12          4.9910    -0.9240    -1.2650 ha         1 36J       0.117000
     36 H13          6.0340     0.8410    -0.5150 ho         1 36J       0.469000
     37 H14          3.0710     2.2950     0.8380 ha         1 36J       0.136000
     38 H15         -0.0750     0.6930     1.4050 ha         1 36J       0.197000
     39 H16          0.8530     3.2690    -0.0400 ha         1 36J       0.173000
     40 H17         -1.1970     3.0320     2.1640 hc         1 36J       0.047200
     41 H18         -0.8360     4.4180     1.1530 hc         1 36J       0.047200
     42 H19         -3.1050     3.6900     0.6660 hc         1 36J       0.039200
     43 H20         -2.0990     3.3840    -0.7500 hc         1 36J       0.039200
     44 H21         -1.8920     0.9770    -0.0590 hc         1 36J       0.054700
     45 H22         -2.8880     1.2990     1.3610 hc         1 36J       0.054700
     46 H23         -4.8120     1.8320    -0.1460 h1         1 36J       0.022700
     47 H24         -3.4950     2.4330    -1.9480 ho         1 36J       0.439000
@<TRIPOS>BOND
     1     1     2 1   
     2     1    22 1   
     3     1    24 1   
     4     1    25 1   
     5     2     3 1   
     6     2    26 1   
     7     2    27 1   
     8     3     4 1   
     9     3    28 1   
    10     3    29 1   
    11     4     5 1   
    12     4     6 1   
    13     4    30 1   
    14     5    31 1   
    15     5    32 1   
    16     5    33 1   
    17     6     7 1   
    18     7     8 2   
    19     7     9 1   
    20     9    10 ar  
    21     9    16 ar  
    22    10    11 1   
    23    10    12 ar  
    24    11    34 1   
    25    12    13 ar  
    26    12    35 1   
    27    13    14 1   
    28    13    15 ar  
    29    14    36 1   
    30    15    16 ar  
    31    15    37 1   
    32    16    17 1   
    33    17    18 2   
    34    17    38 1   
    35    18    19 1   
    36    18    39 1   
    37    19    20 1   
    38    19    40 1   
    39    19    41 1   
    40    20    21 1   
    41    20    42 1   
    42    20    43 1   
    43    21    22 1   
    44    21    44 1   
    45    21    45 1   
    46    22    23 1   
    47    22    46 1   
    48    23    47 1   
@<TRIPOS>SUBSTRUCTURE
     1 36J         1 TEMP              0 ****  ****    0 ROOT
