@<TRIPOS>MOLECULE
36K
   41    43     1     0     0
SMALL
No Charge or Current Charge


@<TRIPOS>ATOM
      1 CAF         -2.4020    -2.9550    -1.2120 c3         1 36K      -0.118100
      2 CAE         -2.4560    -2.3260     0.1920 c3         1 36K       0.078600
      3 NAD         -2.6520    -0.8650     0.1510 na         1 36K      -0.214600
      4 CAC         -3.8640    -0.2290     0.1260 ca         1 36K      -0.079200
      5 CAB         -5.1600    -0.7670     0.1280 ca         1 36K      -0.115000
      6 CAA         -6.2460     0.1310     0.0960 ca         1 36K      -0.101000
      7 CAI         -6.0140     1.5260     0.0610 ca         1 36K      -0.132000
      8 CAJ         -4.6940     2.0280     0.0560 ca         1 36K      -0.053000
      9 CAK         -3.6280     1.1160     0.0880 ca         1 36K       0.088400
     10 NAL         -2.2730     1.4000     0.0820 nc         1 36K      -0.567100
     11 CAM         -1.7090     0.1790     0.1150 cd         1 36K       0.508400
     12 NAN         -0.3620    -0.0790     0.1070 ns         1 36K      -0.443400
     13 CAO          0.6840     0.8130     0.0770 c          1 36K       0.672100
     14 OAT          0.5500     2.0270     0.0590 o          1 36K      -0.556100
     15 NAP          1.9080     0.1600     0.0700 ns         1 36K      -0.165000
     16 CAQ          3.2550     0.6300     0.0420 ca         1 36K      -0.054000
     17 CAU          3.5980     2.0020     0.0200 ca         1 36K      -0.075000
     18 CAV          4.9460     2.3970    -0.0070 ca         1 36K      -0.127000
     19 CAW          5.9650     1.4340    -0.0110 ca         1 36K      -0.085000
     20 CAS          5.6390     0.0690     0.0110 ca         1 36K      -0.180000
     21 CAR          4.2860    -0.3380     0.0380 ca         1 36K       0.106100
     22 OAG          3.9260    -1.6750     0.0610 os         1 36K      -0.357100
     23 CAH          4.8980    -2.7370     0.0580 c3         1 36K       0.151900
     24 HAF1        -1.5740    -2.5340    -1.7940 hc         1 36K       0.047367
     25 HAF2        -2.2570    -4.0390    -1.1380 hc         1 36K       0.047367
     26 HAF3        -3.3370    -2.7700    -1.7540 hc         1 36K       0.047367
     27 HAE1        -3.2750    -2.7810     0.7630 h1         1 36K       0.058700
     28 HAE2        -1.5250    -2.5490     0.7280 h1         1 36K       0.058700
     29 HAB         -5.3310    -1.8410     0.1530 ha         1 36K       0.113000
     30 HAA         -7.2650    -0.2490     0.0980 ha         1 36K       0.110000
     31 HAI         -6.8550     2.2150     0.0360 ha         1 36K       0.113000
     32 HAJ         -4.5050     3.0980     0.0260 ha         1 36K       0.131000
     33 HAN         -0.0830    -1.0460     0.1210 hn         1 36K       0.320500
     34 HAP          1.8460    -0.8490     0.0860 hn         1 36K       0.156000
     35 HAU          2.8390     2.7780     0.0220 ha         1 36K       0.136000
     36 HAV          5.2000     3.4550    -0.0240 ha         1 36K       0.120000
     37 HAW          7.0070     1.7460    -0.0320 ha         1 36K       0.114000
     38 HAS          6.4480    -0.6560     0.0070 ha         1 36K       0.117000
     39 HAH1         5.5490    -2.6720     0.9400 h1         1 36K       0.042033
     40 HAH2         4.3950    -3.7110     0.0790 h1         1 36K       0.042033
     41 HAH3         5.5200    -2.6940    -0.8450 h1         1 36K       0.042033
@<TRIPOS>BOND
     1     1     2 1   
     2     1    24 1   
     3     1    25 1   
     4     1    26 1   
     5     2     3 1   
     6     2    27 1   
     7     2    28 1   
     8     3     4 1   
     9     3    11 1   
    10     4     5 ar  
    11     4     9 ar  
    12     5     6 ar  
    13     5    29 1   
    14     6     7 ar  
    15     6    30 1   
    16     7     8 ar  
    17     7    31 1   
    18     8     9 ar  
    19     8    32 1   
    20     9    10 1   
    21    10    11 2   
    22    11    12 1   
    23    12    13 1   
    24    12    33 1   
    25    13    14 2   
    26    13    15 1   
    27    15    16 1   
    28    15    34 1   
    29    16    17 ar  
    30    16    21 ar  
    31    17    18 ar  
    32    17    35 1   
    33    18    19 ar  
    34    18    36 1   
    35    19    20 ar  
    36    19    37 1   
    37    20    21 ar  
    38    20    38 1   
    39    21    22 1   
    40    22    23 1   
    41    23    39 1   
    42    23    40 1   
    43    23    41 1   
@<TRIPOS>SUBSTRUCTURE
     1 36K         1 TEMP              0 ****  ****    0 ROOT
