@<TRIPOS>MOLECULE
36K
   41    43     1     0     0
SMALL
abcg2


@<TRIPOS>ATOM
      1 CAF         -2.6140    -3.2550     0.3510 c3         1 36K      -0.118100
      2 CAE         -2.6060    -2.0060     1.2180 c3         1 36K       0.078600
      3 NAD         -2.6570    -0.7850     0.4380 na         1 36K      -0.214600
      4 CAC         -3.7980    -0.1670    -0.0190 ca         1 36K      -0.079200
      5 CAB         -5.1440    -0.4710     0.1270 ca         1 36K      -0.115000
      6 CAA         -6.0480     0.4010    -0.4630 ca         1 36K      -0.101000
      7 CAI         -5.6170     1.5290    -1.1720 ca         1 36K      -0.132000
      8 CAJ         -4.2690     1.8200    -1.3150 ca         1 36K      -0.053000
      9 CAK         -3.3470     0.9560    -0.7310 ca         1 36K       0.088400
     10 NAL         -1.9730     0.9950    -0.7350 nc         1 36K      -0.567100
     11 CAM         -1.6130    -0.0460    -0.0400 cd         1 36K       0.508400
     12 NAN         -0.3250    -0.4530     0.2140 ns         1 36K      -0.443400
     13 CAO          0.7710     0.3890     0.2710 c          1 36K       0.672100
     14 OAT          0.6890     1.5960     0.2140 o          1 36K      -0.556100
     15 NAP          1.9390    -0.2980     0.4210 ns         1 36K      -0.165000
     16 CAQ          3.2010     0.3160     0.4700 ca         1 36K      -0.054000
     17 CAU          3.4610     1.4060     1.2870 ca         1 36K      -0.075000
     18 CAV          4.7220     1.9870     1.3130 ca         1 36K      -0.127000
     19 CAW          5.7380     1.4570     0.5350 ca         1 36K      -0.085000
     20 CAS          5.5000     0.3510    -0.2730 ca         1 36K      -0.180000
     21 CAR          4.2340    -0.2190    -0.3190 ca         1 36K       0.106100
     22 OAG          3.9020    -1.2830    -1.0740 os         1 36K      -0.357100
     23 CAH          4.9110    -1.9080    -1.8440 c3         1 36K       0.151900
     24 HAF1        -1.7460    -3.2920    -0.3080 hc         1 36K       0.047367
     25 HAF2        -2.5950    -4.1440     0.9800 hc         1 36K       0.047367
     26 HAF3        -3.5110    -3.2980    -0.2670 hc         1 36K       0.047367
     27 HAE1        -3.4630    -2.0010     1.8920 h1         1 36K       0.058700
     28 HAE2        -1.7210    -1.9740     1.8530 h1         1 36K       0.058700
     29 HAB         -5.4840    -1.3450     0.6680 ha         1 36K       0.113000
     30 HAA         -7.1070     0.2030    -0.3730 ha         1 36K       0.110000
     31 HAI         -6.3530     2.1850    -1.6170 ha         1 36K       0.113000
     32 HAJ         -3.9400     2.6930    -1.8640 ha         1 36K       0.131000
     33 HAN         -0.1780    -1.4350     0.3860 hn         1 36K       0.320500
     34 HAP          1.9320    -1.2970     0.2780 hn         1 36K       0.156000
     35 HAU          2.6750     1.8020     1.9150 ha         1 36K       0.136000
     36 HAV          4.9050     2.8430     1.9480 ha         1 36K       0.120000
     37 HAW          6.7270     1.8960     0.5530 ha         1 36K       0.114000
     38 HAS          6.3080    -0.0470    -0.8720 ha         1 36K       0.117000
     39 HAH1         5.7250    -2.2840    -1.2200 h1         1 36K       0.042033
     40 HAH2         4.4380    -2.7460    -2.3490 h1         1 36K       0.042033
     41 HAH3         5.3240    -1.2320    -2.5970 h1         1 36K       0.042033
@<TRIPOS>BOND
     1     1     2 1   
     2     1    24 1   
     3     1    25 1   
     4     1    26 1   
     5     2     3 1   
     6     2    27 1   
     7     2    28 1   
     8     3     4 1   
     9     3    11 1   
    10     4     5 ar  
    11     4     9 ar  
    12     5     6 ar  
    13     5    29 1   
    14     6     7 ar  
    15     6    30 1   
    16     7     8 ar  
    17     7    31 1   
    18     8     9 ar  
    19     8    32 1   
    20     9    10 1   
    21    10    11 2   
    22    11    12 1   
    23    12    13 1   
    24    12    33 1   
    25    13    14 2   
    26    13    15 1   
    27    15    16 1   
    28    15    34 1   
    29    16    17 ar  
    30    16    21 ar  
    31    17    18 ar  
    32    17    35 1   
    33    18    19 ar  
    34    18    36 1   
    35    19    20 ar  
    36    19    37 1   
    37    20    21 ar  
    38    20    38 1   
    39    21    22 1   
    40    22    23 1   
    41    23    39 1   
    42    23    40 1   
    43    23    41 1   
@<TRIPOS>SUBSTRUCTURE
     1 36K         1 TEMP              0 ****  ****    0 ROOT
