@<TRIPOS>MOLECULE
36L
   91    94     1     0     0
SMALL
No Charge or Current Charge


@<TRIPOS>ATOM
      1 CAO         24.7760   -24.4270   -45.0470 c3         1 36L      -0.077400
      2 CAS         24.9850   -23.9420   -43.5810 c3         1 36L       0.186300
      3 OAT         23.6940   -23.8270   -42.9640 oh         1 36L      -0.728000
      4 CAU         25.7410   -22.6100   -43.3710 cx         1 36L       0.077000
      5 CBA         25.2650   -21.4560   -44.2610 c3         1 36L      -0.075100
      6 OBB         25.9070   -22.2660   -41.9730 op         1 36L      -0.455000
      7 CAV         27.1060   -22.5810   -42.7090 cx         1 36L       0.141500
      8 CAW         28.0520   -21.4350   -42.8590 c2         1 36L      -0.209200
      9 CAX         29.3700   -21.4580   -42.5920 c2         1 36L      -0.199200
     10 CAY         30.3200   -20.2960   -42.8760 c3         1 36L      -0.028500
     11 CAZ         31.3970   -20.1930   -41.7730 c3         1 36L      -0.080100
     12 CAC         30.9220   -20.3820   -44.3200 c6         1 36L       0.198300
     13 CAB         29.8400   -20.6150   -45.3870 c6         1 36L      -0.120400
     14 OAD         31.6720   -19.1790   -44.5970 os         1 36L      -0.459100
     15 CAE         32.0730   -18.8510   -45.8740 c          1 36L       0.667100
     16 OAG         33.0290   -18.1150   -46.0700 o          1 36L      -0.504000
     17 CAF         31.1930   -19.3480   -47.0450 c6         1 36L      -0.183400
     18 CAA         30.4670   -20.6870   -46.7880 c6         1 36L      -0.057700
     19 CAH         29.4000   -21.0480   -47.8720 c3         1 36L      -0.048200
     20 CAI         28.5180   -22.2150   -47.4550 c2         1 36L      -0.136200
     21 CAJ         28.9820   -23.4380   -47.0980 ce         1 36L      -0.276200
     22 CAK         28.1800   -24.5400   -46.5030 c          1 36L       0.593300
     23 OAL         28.6700   -25.6190   -46.2060 o          1 36L      -0.493000
     24 OAM         26.8940   -24.1600   -46.2010 os         1 36L      -0.457100
     25 CAN         25.9810   -25.1600   -45.6990 c3         1 36L       0.185300
     26 CAP         25.5790   -26.1030   -46.8900 c3         1 36L      -0.079700
     27 CAR         24.8800   -25.3400   -48.0510 c3         1 36L      -0.083100
     28 CAQ         24.7440   -27.3370   -46.4280 c3         1 36L       0.206500
     29 OBC         24.6590   -28.2620   -47.5330 os         1 36L      -0.458000
     30 CBE         23.7280   -29.3460   -47.3590 c3         1 36L       0.143900
     31 CBD         25.3330   -28.0530   -45.2060 c2         1 36L      -0.131400
     32 CBG         26.6880   -28.7150   -45.4470 c3         1 36L      -0.062900
     33 CBF         24.7050   -28.0470   -44.0060 ce         1 36L      -0.192000
     34 CBH         25.2170   -28.6660   -42.7750 ce         1 36L      -0.175000
     35 CBI         24.5660   -28.6260   -41.5780 cf         1 36L      -0.170000
     36 CBJ         25.0120   -29.2030   -40.3070 cf         1 36L      -0.074200
     37 CBL         26.1520   -30.2160   -40.3510 c3         1 36L      -0.057900
     38 CBK         24.3650   -28.8820   -39.1470 ce         1 36L      -0.235800
     39 CBM         24.6170   -29.3600   -37.7930 cc         1 36L       0.293800
     40 NBN         23.5780   -29.5010   -36.9220 nc         1 36L      -0.680000
     41 CBO         24.1670   -29.9340   -35.8160 cd         1 36L       0.453300
     42 CBR         23.4350   -30.2440   -34.5450 c3         1 36L      -0.119400
     43 OBP         25.5240   -30.0890   -35.8790 os         1 36L      -0.280000
     44 CBQ         25.7800   -29.7090   -37.1590 cd         1 36L       0.114900
     45 H1          24.4490   -23.6030   -45.6900 hc         1 36L       0.073700
     46 H2          23.9320   -25.1240   -45.0250 hc         1 36L       0.073700
     47 H3          25.5470   -24.7290   -43.0580 h1         1 36L       0.048700
     48 H4          23.8510   -23.3140   -42.1360 ho         1 36L       0.521000
     49 H5          25.3970   -20.4840   -43.7710 hc         1 36L       0.053033
     50 H6          25.8250   -21.4390   -45.2040 hc         1 36L       0.053033
     51 H7          24.2000   -21.5430   -44.5040 hc         1 36L       0.053033
     52 H8          27.5660   -23.5350   -42.4480 h1         1 36L       0.089700
     53 H9          27.6120   -20.5200   -43.2530 ha         1 36L       0.183000
     54 H10         29.8460   -22.3640   -42.2100 ha         1 36L       0.176000
     55 H11         29.7370   -19.3670   -42.8280 hc         1 36L       0.064700
     56 H12         30.9290   -20.1140   -40.7840 hc         1 36L       0.045700
     57 H13         32.0460   -21.0780   -41.7770 hc         1 36L       0.045700
     58 H14         32.0260   -19.3070   -41.9200 hc         1 36L       0.045700
     59 H15         31.6200   -21.2330   -44.3490 h1         1 36L       0.056700
     60 H16         29.0780   -19.8250   -45.3410 hc         1 36L       0.065700
     61 H17         29.3340   -21.5600   -45.1650 hc         1 36L       0.065700
     62 H18         31.7780   -19.3450   -47.9740 hc         1 36L       0.078700
     63 H19         30.4230   -18.5740   -47.1640 hc         1 36L       0.078700
     64 H20         31.2120   -21.4970   -46.7980 hc         1 36L       0.058700
     65 H21         29.8980   -21.2780   -48.8230 hc         1 36L       0.060200
     66 H22         28.7640   -20.1760   -48.0690 hc         1 36L       0.060200
     67 H23         27.4590   -21.9650   -47.3570 ha         1 36L       0.189000
     68 H24         30.0410   -23.6700   -47.1910 ha         1 36L       0.203000
     69 H25         26.4710   -25.7580   -44.9180 h1         1 36L       0.069700
     70 H26         26.5050   -26.5120   -47.3080 hc         1 36L       0.084700
     71 H27         25.4870   -24.4920   -48.3880 hc         1 36L       0.041700
     72 H28         24.7280   -25.9990   -48.9140 hc         1 36L       0.041700
     73 H29         23.9000   -24.9600   -47.7410 hc         1 36L       0.041700
     74 H30         23.7330   -26.9870   -46.1790 h1         1 36L       0.038700
     75 H31         23.6990   -29.9700   -48.2620 h1         1 36L       0.032700
     76 H32         24.0170   -29.9860   -46.5160 h1         1 36L       0.032700
     77 H33         22.7150   -28.9650   -47.1760 h1         1 36L       0.032700
     78 H34         26.6910   -29.7500   -45.0850 hc         1 36L       0.052367
     79 H35         26.9650   -28.7510   -46.5070 hc         1 36L       0.052367
     80 H36         27.4850   -28.1740   -44.9220 hc         1 36L       0.052367
     81 H37         23.7430   -27.5390   -43.9120 ha         1 36L       0.173000
     82 H38         26.1830   -29.1660   -42.8370 ha         1 36L       0.176000
     83 H39         23.6150   -28.0890   -41.5500 ha         1 36L       0.174000
     84 H40         26.0840   -30.9480   -39.5390 hc         1 36L       0.042700
     85 H41         26.1430   -30.8020   -41.2770 hc         1 36L       0.042700
     86 H42         27.1260   -29.7180   -40.2750 hc         1 36L       0.042700
     87 H43         23.5090   -28.2110   -39.2050 ha         1 36L       0.194000
     88 H44         22.6630   -31.0020   -34.7150 hc         1 36L       0.066033
     89 H45         24.1200   -30.6250   -33.7790 hc         1 36L       0.066033
     90 H46         22.9490   -29.3450   -34.1480 hc         1 36L       0.066033
     91 H47         26.8070   -29.7190   -37.4990 h4         1 36L       0.064100
@<TRIPOS>BOND
     1     1     2 1   
     2     1    25 1   
     3     1    45 1   
     4     1    46 1   
     5     2     3 1   
     6     2     4 1   
     7     2    47 1   
     8     3    48 1   
     9     4     5 1   
    10     4     6 1   
    11     4     7 1   
    12     5    49 1   
    13     5    50 1   
    14     5    51 1   
    15     6     7 1   
    16     7     8 1   
    17     7    52 1   
    18     8     9 2   
    19     8    53 1   
    20     9    10 1   
    21     9    54 1   
    22    10    11 1   
    23    10    12 1   
    24    10    55 1   
    25    11    56 1   
    26    11    57 1   
    27    11    58 1   
    28    12    13 1   
    29    12    14 1   
    30    12    59 1   
    31    13    18 1   
    32    13    60 1   
    33    13    61 1   
    34    14    15 1   
    35    15    16 2   
    36    15    17 1   
    37    17    18 1   
    38    17    62 1   
    39    17    63 1   
    40    18    19 1   
    41    18    64 1   
    42    19    20 1   
    43    19    65 1   
    44    19    66 1   
    45    20    21 2   
    46    20    67 1   
    47    21    22 1   
    48    21    68 1   
    49    22    23 2   
    50    22    24 1   
    51    24    25 1   
    52    25    26 1   
    53    25    69 1   
    54    26    27 1   
    55    26    28 1   
    56    26    70 1   
    57    27    71 1   
    58    27    72 1   
    59    27    73 1   
    60    28    29 1   
    61    28    31 1   
    62    28    74 1   
    63    29    30 1   
    64    30    75 1   
    65    30    76 1   
    66    30    77 1   
    67    31    32 1   
    68    31    33 2   
    69    32    78 1   
    70    32    79 1   
    71    32    80 1   
    72    33    34 1   
    73    33    81 1   
    74    34    35 2   
    75    34    82 1   
    76    35    36 1   
    77    35    83 1   
    78    36    37 1   
    79    36    38 2   
    80    37    84 1   
    81    37    85 1   
    82    37    86 1   
    83    38    39 1   
    84    38    87 1   
    85    39    40 1   
    86    39    44 2   
    87    40    41 2   
    88    41    42 1   
    89    41    43 1   
    90    42    88 1   
    91    42    89 1   
    92    42    90 1   
    93    43    44 1   
    94    44    91 1   
@<TRIPOS>SUBSTRUCTURE
     1 36L         1 TEMP              0 ****  ****    0 ROOT
