@<TRIPOS>MOLECULE
36L
   91    94     1     0     0
SMALL
abcg2


@<TRIPOS>ATOM
      1 CAO         24.6080   -24.7420   -45.3250 c3         1 36L      -0.077400
      2 CAS         24.7800   -24.7040   -43.8080 c3         1 36L       0.186300
      3 OAT         23.4500   -24.7460   -43.2660 oh         1 36L      -0.728000
      4 CAU         25.4860   -23.4900   -43.2140 cx         1 36L       0.077000
      5 CBA         25.0720   -22.1440   -43.7460 c3         1 36L      -0.075100
      6 OBB         25.5280   -23.6170   -41.7700 op         1 36L      -0.455000
      7 CAV         26.7740   -23.6880   -42.5130 cx         1 36L       0.141500
      8 CAW         27.7270   -22.5920   -42.2790 c2         1 36L      -0.209200
      9 CAX         29.0490   -22.7450   -42.2650 c2         1 36L      -0.199200
     10 CAY         30.0240   -21.6030   -42.1810 c3         1 36L      -0.028500
     11 CAZ         31.1280   -21.8800   -41.1570 c3         1 36L      -0.080100
     12 CAC         30.5910   -21.3600   -43.5870 c6         1 36L       0.198300
     13 CAB         29.5340   -21.1040   -44.6300 c6         1 36L      -0.120400
     14 OAD         31.5270   -20.2390   -43.5040 os         1 36L      -0.459100
     15 CAE         31.8390   -19.4750   -44.5630 c          1 36L       0.667100
     16 OAG         32.7330   -18.6650   -44.4360 o          1 36L      -0.504000
     17 CAF         31.0400   -19.5870   -45.8480 c6         1 36L      -0.183400
     18 CAA         30.1910   -20.8460   -45.9740 c6         1 36L      -0.057700
     19 CAH         29.1610   -20.7710   -47.1230 c3         1 36L      -0.048200
     20 CAI         28.2420   -21.9560   -47.0400 c2         1 36L      -0.136200
     21 CAJ         28.6330   -23.2090   -47.2790 ce         1 36L      -0.276200
     22 CAK         27.8670   -24.4080   -46.9090 c          1 36L       0.593300
     23 OAL         28.3690   -25.5180   -46.8940 o          1 36L      -0.493000
     24 OAM         26.5980   -24.1640   -46.5470 os         1 36L      -0.457100
     25 CAN         25.7880   -25.2990   -46.1160 c3         1 36L       0.185300
     26 CAP         25.3750   -26.1300   -47.3440 c3         1 36L      -0.079700
     27 CAR         24.5090   -25.3370   -48.3230 c3         1 36L      -0.083100
     28 CAQ         24.6860   -27.4490   -46.9290 c3         1 36L       0.206500
     29 OBC         24.6210   -28.2480   -48.1120 os         1 36L      -0.458000
     30 CBE         23.7850   -29.3860   -47.9730 c3         1 36L       0.143900
     31 CBD         25.4040   -28.1500   -45.7960 c2         1 36L      -0.131400
     32 CBG         26.7520   -28.7220   -46.1140 c3         1 36L      -0.062900
     33 CBF         24.8520   -28.1180   -44.5690 ce         1 36L      -0.192000
     34 CBH         25.4730   -28.5030   -43.3270 ce         1 36L      -0.175000
     35 CBI         24.9270   -28.1970   -42.1300 cf         1 36L      -0.170000
     36 CBJ         25.5090   -28.4060   -40.8210 cf         1 36L      -0.074200
     37 CBL         26.8180   -29.1300   -40.6800 c3         1 36L      -0.057900
     38 CBK         24.8500   -27.8970   -39.7500 ce         1 36L      -0.235800
     39 CBM         25.2480   -27.9090   -38.3640 cc         1 36L       0.293800
     40 NBN         24.3510   -27.4460   -37.3830 nc         1 36L      -0.680000
     41 CBO         24.9680   -27.5520   -36.2540 cd         1 36L       0.453300
     42 CBR         24.4970   -27.2120   -34.8920 c3         1 36L      -0.119400
     43 OBP         26.2280   -28.0490   -36.3830 os         1 36L      -0.280000
     44 CBQ         26.3980   -28.2710   -37.7260 cd         1 36L       0.114900
     45 H1          24.3330   -23.7630   -45.7150 hc         1 36L       0.073700
     46 H2          23.7490   -25.3870   -45.4980 hc         1 36L       0.073700
     47 H3          25.3200   -25.5990   -43.4850 h1         1 36L       0.048700
     48 H4          23.5370   -24.7150   -42.3030 ho         1 36L       0.521000
     49 H5          25.3930   -21.3420   -43.0850 hc         1 36L       0.053033
     50 H6          25.5120   -21.9760   -44.7300 hc         1 36L       0.053033
     51 H7          23.9870   -22.0960   -43.8430 hc         1 36L       0.053033
     52 H8          27.2060   -24.6850   -42.5460 h1         1 36L       0.089700
     53 H9          27.3070   -21.6010   -42.1540 ha         1 36L       0.183000
     54 H10         29.4770   -23.7370   -42.3980 ha         1 36L       0.176000
     55 H11         29.4780   -20.6990   -41.8940 hc         1 36L       0.064700
     56 H12         30.6960   -22.0360   -40.1670 hc         1 36L       0.045700
     57 H13         31.6880   -22.7780   -41.4290 hc         1 36L       0.045700
     58 H14         31.8270   -21.0460   -41.1000 hc         1 36L       0.045700
     59 H15         31.1920   -22.2270   -43.8800 h1         1 36L       0.056700
     60 H16         28.9070   -20.2560   -44.3340 hc         1 36L       0.065700
     61 H17         28.8930   -21.9790   -44.6790 hc         1 36L       0.065700
     62 H18         31.7410   -19.4660   -46.6740 hc         1 36L       0.078700
     63 H19         30.3910   -18.7030   -45.8550 hc         1 36L       0.078700
     64 H20         30.8490   -21.6940   -46.1900 hc         1 36L       0.058700
     65 H21         29.6940   -20.7530   -48.0770 hc         1 36L       0.060200
     66 H22         28.5890   -19.8450   -47.0420 hc         1 36L       0.060200
     67 H23         27.2480   -21.7900   -46.6400 ha         1 36L       0.189000
     68 H24         29.6300   -23.4250   -47.6450 ha         1 36L       0.203000
     69 H25         26.4210   -25.9040   -45.4710 h1         1 36L       0.069700
     70 H26         26.2990   -26.4150   -47.8470 hc         1 36L       0.084700
     71 H27         25.0110   -24.4160   -48.6230 hc         1 36L       0.041700
     72 H28         24.3170   -25.9270   -49.2180 hc         1 36L       0.041700
     73 H29         23.5470   -25.0730   -47.8800 hc         1 36L       0.041700
     74 H30         23.6600   -27.2310   -46.6050 h1         1 36L       0.038700
     75 H31         23.7600   -29.8840   -48.9410 h1         1 36L       0.032700
     76 H32         24.1710   -30.0820   -47.2210 h1         1 36L       0.032700
     77 H33         22.7680   -29.0930   -47.6880 h1         1 36L       0.032700
     78 H34         27.1390   -29.3450   -45.3110 hc         1 36L       0.052367
     79 H35         26.7000   -29.3220   -47.0250 hc         1 36L       0.052367
     80 H36         27.4750   -27.9220   -46.3060 hc         1 36L       0.052367
     81 H37         23.8670   -27.6680   -44.4750 ha         1 36L       0.173000
     82 H38         26.4440   -28.9810   -43.3700 ha         1 36L       0.176000
     83 H39         23.9660   -27.6870   -42.1320 ha         1 36L       0.174000
     84 H40         26.7800   -29.8390   -39.8500 hc         1 36L       0.042700
     85 H41         27.0780   -29.6830   -41.5790 hc         1 36L       0.042700
     86 H42         27.6330   -28.4300   -40.4710 hc         1 36L       0.042700
     87 H43         23.9040   -27.3980   -39.9260 ha         1 36L       0.194000
     88 H44         23.4820   -26.8260   -34.9460 hc         1 36L       0.066033
     89 H45         24.5120   -28.0960   -34.2500 hc         1 36L       0.066033
     90 H46         25.1440   -26.4590   -34.4390 hc         1 36L       0.066033
     91 H47         27.3550   -28.6480   -38.0290 h4         1 36L       0.064100
@<TRIPOS>BOND
     1     1     2 1   
     2     1    25 1   
     3     1    45 1   
     4     1    46 1   
     5     2     3 1   
     6     2     4 1   
     7     2    47 1   
     8     3    48 1   
     9     4     5 1   
    10     4     6 1   
    11     4     7 1   
    12     5    49 1   
    13     5    50 1   
    14     5    51 1   
    15     6     7 1   
    16     7     8 1   
    17     7    52 1   
    18     8     9 2   
    19     8    53 1   
    20     9    10 1   
    21     9    54 1   
    22    10    11 1   
    23    10    12 1   
    24    10    55 1   
    25    11    56 1   
    26    11    57 1   
    27    11    58 1   
    28    12    13 1   
    29    12    14 1   
    30    12    59 1   
    31    13    18 1   
    32    13    60 1   
    33    13    61 1   
    34    14    15 1   
    35    15    16 2   
    36    15    17 1   
    37    17    18 1   
    38    17    62 1   
    39    17    63 1   
    40    18    19 1   
    41    18    64 1   
    42    19    20 1   
    43    19    65 1   
    44    19    66 1   
    45    20    21 2   
    46    20    67 1   
    47    21    22 1   
    48    21    68 1   
    49    22    23 2   
    50    22    24 1   
    51    24    25 1   
    52    25    26 1   
    53    25    69 1   
    54    26    27 1   
    55    26    28 1   
    56    26    70 1   
    57    27    71 1   
    58    27    72 1   
    59    27    73 1   
    60    28    29 1   
    61    28    31 1   
    62    28    74 1   
    63    29    30 1   
    64    30    75 1   
    65    30    76 1   
    66    30    77 1   
    67    31    32 1   
    68    31    33 2   
    69    32    78 1   
    70    32    79 1   
    71    32    80 1   
    72    33    34 1   
    73    33    81 1   
    74    34    35 2   
    75    34    82 1   
    76    35    36 1   
    77    35    83 1   
    78    36    37 1   
    79    36    38 2   
    80    37    84 1   
    81    37    85 1   
    82    37    86 1   
    83    38    39 1   
    84    38    87 1   
    85    39    40 1   
    86    39    44 2   
    87    40    41 2   
    88    41    42 1   
    89    41    43 1   
    90    42    88 1   
    91    42    89 1   
    92    42    90 1   
    93    43    44 1   
    94    44    91 1   
@<TRIPOS>SUBSTRUCTURE
     1 36L         1 TEMP              0 ****  ****    0 ROOT
