@<TRIPOS>MOLECULE
36M
   25    25     1     0     0
SMALL
No Charge or Current Charge


@<TRIPOS>ATOM
      1 CAA          5.3980    -0.7800    -0.0090 c3         1 36M      -0.090100
      2 CAH          3.8740    -1.0090     0.0290 c3         1 36M      -0.093400
      3 CAI          3.0660     0.3020    -0.0250 c3         1 36M       0.163600
      4 OAJ          1.6720    -0.0480     0.0170 os         1 36M      -0.456100
      5 CAK          0.7480     0.9650    -0.0200 c          1 36M       0.620700
      6 OAB          1.0500     2.1500    -0.0870 o          1 36M      -0.497000
      7 CAM         -0.6820     0.4850     0.0300 ca         1 36M      -0.185600
      8 CAF         -0.9950    -0.8920     0.1070 ca         1 36M      -0.013000
      9 CAD         -2.3350    -1.3160     0.1520 ca         1 36M      -0.198500
     10 CAL         -3.3720    -0.3740     0.1210 ca         1 36M       0.171100
     11 OAC         -4.6720    -0.7780     0.1650 oh         1 36M      -0.527100
     12 CAE         -3.0750     0.9920     0.0440 ca         1 36M      -0.198500
     13 CAG         -1.7380     1.4240    -0.0010 ca         1 36M      -0.013000
     14 H1           5.7210    -0.1730     0.8450 hc         1 36M       0.036367
     15 H2           5.9290    -1.7390     0.0320 hc         1 36M       0.036367
     16 H3           5.6900    -0.2650    -0.9320 hc         1 36M       0.036367
     17 H4           3.5860    -1.6450    -0.8170 hc         1 36M       0.051200
     18 H5           3.6160    -1.5530     0.9460 hc         1 36M       0.051200
     19 H6           3.3360     0.9370     0.8300 h1         1 36M       0.058200
     20 H7           3.3060     0.8450    -0.9500 h1         1 36M       0.058200
     21 H8          -0.2060    -1.6420     0.1330 ha         1 36M       0.134000
     22 H9          -2.5560    -2.3790     0.2120 ha         1 36M       0.126000
     23 H10         -4.6880    -1.7580     0.2160 ho         1 36M       0.470000
     24 H11         -3.8800     1.7220     0.0200 ha         1 36M       0.126000
     25 H12         -1.5260     2.4900    -0.0610 ha         1 36M       0.134000
@<TRIPOS>BOND
     1     1     2 1   
     2     1    14 1   
     3     1    15 1   
     4     1    16 1   
     5     2     3 1   
     6     2    17 1   
     7     2    18 1   
     8     3     4 1   
     9     3    19 1   
    10     3    20 1   
    11     4     5 1   
    12     5     6 2   
    13     5     7 1   
    14     7     8 ar  
    15     7    13 ar  
    16     8     9 ar  
    17     8    21 1   
    18     9    10 ar  
    19     9    22 1   
    20    10    11 1   
    21    10    12 ar  
    22    11    23 1   
    23    12    13 ar  
    24    12    24 1   
    25    13    25 1   
@<TRIPOS>SUBSTRUCTURE
     1 36M         1 TEMP              0 ****  ****    0 ROOT
