@<TRIPOS>MOLECULE
36M
   25    25     1     0     0
SMALL
abcg2


@<TRIPOS>ATOM
      1 CAA          5.2800    -0.6970    -0.1720 c3         1 36M      -0.090100
      2 CAH          3.7710    -0.8820    -0.2680 c3         1 36M      -0.093400
      3 CAI          3.0440     0.2220     0.4740 c3         1 36M       0.163600
      4 OAJ          1.6330    -0.0340     0.4550 os         1 36M      -0.456100
      5 CAK          0.7880     0.8660    -0.0290 c          1 36M       0.620700
      6 OAB          1.1190     1.9490    -0.4560 o          1 36M      -0.497000
      7 CAM         -0.6140     0.4010     0.0180 ca         1 36M      -0.185600
      8 CAF         -0.9710    -0.8800     0.4390 ca         1 36M      -0.013000
      9 CAD         -2.2980    -1.2690     0.4740 ca         1 36M      -0.198500
     10 CAL         -3.2980    -0.3770     0.0880 ca         1 36M       0.171100
     11 OAC         -4.5990    -0.6960     0.1100 oh         1 36M      -0.527100
     12 CAE         -2.9510     0.9050    -0.3420 ca         1 36M      -0.198500
     13 CAG         -1.6240     1.2810    -0.3750 ca         1 36M      -0.013000
     14 H1           5.6200    -0.7280     0.8650 hc         1 36M       0.036367
     15 H2           5.8030    -1.4850    -0.7140 hc         1 36M       0.036367
     16 H3           5.5930     0.2590    -0.5950 hc         1 36M       0.036367
     17 H4           3.4620    -0.8810    -1.3160 hc         1 36M       0.051200
     18 H5           3.4900    -1.8520     0.1480 hc         1 36M       0.051200
     19 H6           3.3450     0.2470     1.5230 h1         1 36M       0.058200
     20 H7           3.2680     1.1950     0.0370 h1         1 36M       0.058200
     21 H8          -0.2160    -1.5920     0.7450 ha         1 36M       0.134000
     22 H9          -2.5560    -2.2690     0.8040 ha         1 36M       0.126000
     23 H10         -4.7270    -1.5960     0.4330 ho         1 36M       0.470000
     24 H11         -3.7260     1.5990    -0.6430 ha         1 36M       0.126000
     25 H12         -1.3680     2.2780    -0.7080 ha         1 36M       0.134000
@<TRIPOS>BOND
     1     1     2 1   
     2     1    14 1   
     3     1    15 1   
     4     1    16 1   
     5     2     3 1   
     6     2    17 1   
     7     2    18 1   
     8     3     4 1   
     9     3    19 1   
    10     3    20 1   
    11     4     5 1   
    12     5     6 2   
    13     5     7 1   
    14     7     8 ar  
    15     7    13 ar  
    16     8     9 ar  
    17     8    21 1   
    18     9    10 ar  
    19     9    22 1   
    20    10    11 1   
    21    10    12 ar  
    22    11    23 1   
    23    12    13 ar  
    24    12    24 1   
    25    13    25 1   
@<TRIPOS>SUBSTRUCTURE
     1 36M         1 TEMP              0 ****  ****    0 ROOT
