@<TRIPOS>MOLECULE
36N
   14    15     1     0     0
SMALL
No Charge or Current Charge


@<TRIPOS>ATOM
      1 N3           1.5800    -1.0840    -0.0260 na         1 36N      -0.323400
      2 C5           0.2530    -0.6830    -0.0220 ca         1 36N       0.319500
      3 C6           0.2040     0.7100     0.0100 ca         1 36N       0.303800
      4 C8          -2.0600     0.7050     0.0020 ca         1 36N       0.258900
      5 C1           1.5450     1.1960     0.0260 cc         1 36N      -0.341800
      6 C2           2.3830     0.0880     0.0030 cd         1 36N      -0.144100
      7 N7          -0.9210     1.4570     0.0230 nb         1 36N      -0.589000
      8 C9          -2.0350    -0.7230    -0.0300 ca         1 36N       0.301900
      9 N10         -0.8700    -1.4410    -0.0430 nb         1 36N      -0.645000
     10 H1           1.9020    -2.0450    -0.0470 hn         1 36N       0.364000
     11 H2          -3.0050     1.2460     0.0110 h4         1 36N       0.028100
     12 H3           1.8560     2.2370     0.0500 ha         1 36N       0.221000
     13 H4           3.4730     0.0440     0.0060 h4         1 36N       0.218000
     14 H5          -2.9620    -1.2940    -0.0460 h4         1 36N       0.028100
@<TRIPOS>BOND
     1     1     2 1   
     2     1     6 1   
     3     1    10 1   
     4     2     3 ar  
     5     2     9 ar  
     6     3     5 1   
     7     3     7 ar  
     8     4     7 ar  
     9     4     8 ar  
    10     4    11 1   
    11     5     6 2   
    12     5    12 1   
    13     6    13 1   
    14     8     9 ar  
    15     8    14 1   
@<TRIPOS>SUBSTRUCTURE
     1 36N         1 TEMP              0 ****  ****    0 ROOT
