@<TRIPOS>MOLECULE
36N
   14    15     1     0     0
SMALL
bcc


@<TRIPOS>ATOM
      1 N3           1.5290    -1.0390    -0.0240 na         1 36N      -0.273100
      2 C5           0.2300    -0.6480    -0.0200 ca         1 36N       0.319500
      3 C6           0.2090     0.7710     0.0120 ca         1 36N       0.303800
      4 C8          -2.0300     0.6720     0.0010 ca         1 36N       0.258900
      5 C1           1.5640     1.2090     0.0260 cc         1 36N      -0.291800
      6 C2           2.3240     0.0740     0.0030 cd         1 36N      -0.094100
      7 N7          -0.9450     1.4330     0.0230 nb         1 36N      -0.589000
      8 C9          -1.9830    -0.7270    -0.0300 ca         1 36N       0.301900
      9 N10         -0.8450    -1.4090    -0.0410 nb         1 36N      -0.645000
     10 H1           1.8580    -1.9910    -0.0480 hn         1 36N       0.313700
     11 H2          -2.9900     1.1730     0.0090 h4         1 36N       0.028100
     12 H3           1.9280     2.2230     0.0500 ha         1 36N       0.171000
     13 H4           3.3970    -0.0290     0.0030 h4         1 36N       0.168000
     14 H5          -2.9040    -1.2970    -0.0470 h4         1 36N       0.028100
@<TRIPOS>BOND
     1     1     2 1   
     2     1     6 1   
     3     1    10 1   
     4     2     3 ar  
     5     2     9 ar  
     6     3     5 1   
     7     3     7 ar  
     8     4     7 ar  
     9     4     8 ar  
    10     4    11 1   
    11     5     6 2   
    12     5    12 1   
    13     6    13 1   
    14     8     9 ar  
    15     8    14 1   
@<TRIPOS>SUBSTRUCTURE
     1 36N         1 TEMP              0 ****  ****    0 ROOT
