@<TRIPOS>MOLECULE
36O
   31    33     1     0     0
SMALL
bcc


@<TRIPOS>ATOM
      1 C4          -3.0080    -0.4060    -0.0640 ca         1 36O       0.451800
      2 C5          -1.9260     0.4560     0.0340 ca         1 36O      -0.234200
      3 C7          -0.6510    -0.1090    -0.1730 ca         1 36O       0.779200
      4 C13          2.7220     1.2000    -0.8070 c6         1 36O      -0.090900
      5 C15          4.6920     0.1590     0.3720 c6         1 36O      -0.078400
      6 C17          2.3460    -0.4230     1.0800 c6         1 36O      -0.090900
      7 C1          -3.6360     1.6370     0.3990 cc         1 36O       0.396700
      8 N2          -4.0960     0.3760     0.1750 na         1 36O      -0.362000
      9 N6          -2.3390     1.7300     0.3230 nd         1 36O      -0.553100
     10 N8          -0.5860    -1.4180    -0.4400 nb         1 36O      -0.826000
     11 C9          -1.7140    -2.1240    -0.5070 ca         1 36O       0.707900
     12 N10         -2.9560    -1.7120    -0.3350 nb         1 36O      -0.748000
     13 N11          0.4620     0.6280    -0.1240 nu         1 36O      -0.852900
     14 C12          1.8110     0.1110    -0.2500 c6         1 36O       0.237500
     15 C14          4.1550     0.6960    -0.9500 c6         1 36O      -0.071400
     16 C16          3.7790    -0.9270     0.9320 c6         1 36O      -0.071400
     17 H2           2.7100     2.0630    -0.1310 hc         1 36O       0.047450
     18 H3           5.7050    -0.2290     0.2390 hc         1 36O       0.040700
     19 H4           4.7640     0.9790     1.0940 hc         1 36O       0.040700
     20 H5           2.3110     0.3800     1.8240 hc         1 36O       0.047450
     21 H6           1.6960    -1.2230     1.4430 hc         1 36O       0.047450
     22 H7          -4.3110     2.4510     0.6160 h5         1 36O       0.065800
     23 H8          -5.0610     0.0840     0.1830 hn         1 36O       0.318700
     24 H10         -1.5870    -3.1780    -0.7300 h5         1 36O       0.045100
     25 H11          0.3540     1.5940     0.1430 hn         1 36O       0.452800
     26 H12          1.7790    -0.7150    -0.9660 h1         1 36O       0.082700
     27 H13          4.1860    -0.0980    -1.7040 hc         1 36O       0.042950
     28 H14          4.7920     1.5020    -1.3230 hc         1 36O       0.042950
     29 H15          3.7910    -1.7930     0.2620 hc         1 36O       0.042950
     30 H16          4.1510    -1.2770     1.8980 hc         1 36O       0.042950
     31 H1           2.3390     1.5430    -1.7720 hc         1 36O       0.047450
@<TRIPOS>BOND
     1     1     2 ar  
     2     1     8 1   
     3     1    12 ar  
     4     2     3 ar  
     5     2     9 1   
     6     3    10 ar  
     7     3    13 1   
     8     4    14 1   
     9     4    15 1   
    10     4    17 1   
    11     4    31 1   
    12     5    15 1   
    13     5    16 1   
    14     5    18 1   
    15     5    19 1   
    16     6    14 1   
    17     6    16 1   
    18     6    20 1   
    19     6    21 1   
    20     7     8 1   
    21     7     9 2   
    22     7    22 1   
    23     8    23 1   
    24    10    11 ar  
    25    11    12 ar  
    26    11    24 1   
    27    13    14 1   
    28    13    25 1   
    29    14    26 1   
    30    15    27 1   
    31    15    28 1   
    32    16    29 1   
    33    16    30 1   
@<TRIPOS>SUBSTRUCTURE
     1 36O         1 TEMP              0 ****  ****    0 ROOT
