@<TRIPOS>MOLECULE
36O
   31    33     1     0     0
SMALL
No Charge or Current Charge


@<TRIPOS>ATOM
      1 C4          -3.0280    -0.4280     0.0570 ca         1 36O       0.123500
      2 C5          -1.9250     0.3830    -0.0120 ca         1 36O      -0.103600
      3 C7          -0.6980    -0.1900    -0.4080 ca         1 36O       0.450900
      4 C13          2.7990     1.1920    -0.9410 c6         1 36O      -0.090900
      5 C15          4.6460     0.2360     0.5450 c6         1 36O      -0.078400
      6 C17          2.2050    -0.4030     0.9590 c6         1 36O      -0.090900
      7 C1          -3.5330     1.6730     0.6280 cc         1 36O       0.396700
      8 N2          -4.0400     0.3860     0.4600 na         1 36O      -0.412300
      9 N6          -2.2180     1.7070     0.3430 nd         1 36O      -0.553100
     10 N8          -0.6210    -1.5030    -0.7100 nb         1 36O      -0.300000
     11 C9          -1.7720    -2.2120    -0.6080 ca         1 36O       0.181900
     12 N10         -2.9860    -1.7390    -0.2360 nb         1 36O      -0.222000
     13 N11          0.4540     0.5850    -0.4920 nu         1 36O      -0.908100
     14 C12          1.8330     0.0730    -0.4710 c6         1 36O       0.237500
     15 C14          4.2750     0.7230    -0.8780 c6         1 36O      -0.071400
     16 C16          3.6800    -0.8740     1.0280 c6         1 36O      -0.071400
     17 H2           2.6740     2.0860    -0.3150 hc         1 36O       0.047450
     18 H3           5.6790    -0.1390     0.5530 hc         1 36O       0.040700
     19 H4           4.6170     1.0820     1.2450 hc         1 36O       0.040700
     20 H5           2.0470     0.4120     1.6790 hc         1 36O       0.047450
     21 H6           1.5450    -1.2250     1.2680 hc         1 36O       0.047450
     22 H7          -4.1480     2.5070     0.9460 h5         1 36O       0.065800
     23 H8          -5.0010     0.1110     0.6140 hn         1 36O       0.369000
     24 H10         -1.7150    -3.2720    -0.8500 h5         1 36O       0.045100
     25 H11          0.2940     1.5540    -0.2180 hn         1 36O       0.508000
     26 H12          1.9380    -0.7760    -1.1670 h1         1 36O       0.082700
     27 H13          4.4370    -0.0890    -1.6010 hc         1 36O       0.042950
     28 H14          4.9410     1.5440    -1.1760 hc         1 36O       0.042950
     29 H15          3.8100    -1.7730     0.4100 hc         1 36O       0.042950
     30 H16          3.9310    -1.1650     2.0580 hc         1 36O       0.042950
     31 H1           2.5530     1.4910    -1.9690 hc         1 36O       0.047450
@<TRIPOS>BOND
     1     1     2 ar  
     2     1     8 1   
     3     1    12 ar  
     4     2     3 ar  
     5     2     9 1   
     6     3    10 ar  
     7     3    13 1   
     8     4    14 1   
     9     4    15 1   
    10     4    17 1   
    11     4    31 1   
    12     5    15 1   
    13     5    16 1   
    14     5    18 1   
    15     5    19 1   
    16     6    14 1   
    17     6    16 1   
    18     6    20 1   
    19     6    21 1   
    20     7     8 1   
    21     7     9 2   
    22     7    22 1   
    23     8    23 1   
    24    10    11 ar  
    25    11    12 ar  
    26    11    24 1   
    27    13    14 1   
    28    13    25 1   
    29    14    26 1   
    30    15    27 1   
    31    15    28 1   
    32    16    29 1   
    33    16    30 1   
@<TRIPOS>SUBSTRUCTURE
     1 36O         1 TEMP              0 ****  ****    0 ROOT
