@<TRIPOS>MOLECULE
36P
   33    36     1     0     0
SMALL
No Charge or Current Charge


@<TRIPOS>ATOM
      1 CAO          1.3070    -1.2580    -0.0040 c5         1 36P       0.114000
      2 CAS          2.4430    -2.3570     0.0150 c5         1 36P      -0.046100
      3 CAN          3.7070    -1.5280     0.0170 ca         1 36P      -0.135300
      4 CAM          5.0200    -2.0260     0.0310 ca         1 36P      -0.075000
      5 CAL          6.0930    -1.1170     0.0310 ca         1 36P      -0.134000
      6 CAB          5.8450     0.2710     0.0160 ca         1 36P      -0.092000
      7 CAC          4.5230     0.7560     0.0020 ca         1 36P      -0.110000
      8 CAD          3.4580    -0.1700     0.0020 ca         1 36P      -0.032000
      9 NAE          2.0450     0.0410    -0.0110 n          1 36P      -0.207400
     10 CAF          1.3750     1.3150    -0.0280 c          1 36P       0.547600
     11 OAA          2.0310     2.3550    -0.0340 o          1 36P      -0.585100
     12 CAG         -0.1510     1.3810    -0.0400 cc         1 36P       0.229500
     13 NAH         -1.0520     0.3280    -0.0360 nc         1 36P      -0.638000
     14 CAP         -0.7520     2.6260    -0.0570 cd         1 36P      -0.216000
     15 SAQ         -2.5020     2.5150    -0.0690 ss         1 36P       0.001600
     16 CAI         -2.3050     0.7680    -0.0500 cd         1 36P       0.515900
     17 CAJ         -3.4360    -0.1350    -0.0490 cd         1 36P      -0.172500
     18 CAK         -4.8010     0.2720    -0.0630 cd         1 36P      -0.117000
     19 CAR         -5.6750    -0.7860    -0.0580 cc         1 36P      -0.248000
     20 SAU         -4.8180    -2.3260    -0.0370 ss         1 36P       0.238000
     21 CAT         -3.2630    -1.5020    -0.0340 cc         1 36P      -0.203000
     22 HAO1         0.6850    -1.3680    -0.9020 h1         1 36P       0.061700
     23 HAS1         2.3680    -2.9940     0.9030 hc         1 36P       0.059700
     24 HAO2         0.6720    -1.3510     0.8860 h1         1 36P       0.061700
     25 HAS2         2.3810    -3.0100    -0.8630 hc         1 36P       0.059700
     26 HAM          5.2050    -3.0980     0.0430 ha         1 36P       0.113000
     27 HAL          7.1170    -1.4860     0.0430 ha         1 36P       0.113000
     28 HAB          6.6790     0.9700     0.0160 ha         1 36P       0.113000
     29 HAC          4.3600     1.8290    -0.0100 ha         1 36P       0.143000
     30 HAP         -0.2690     3.5950    -0.0630 h4         1 36P       0.179000
     31 HAK         -5.1300     1.3080    -0.0760 ha         1 36P       0.139000
     32 HAT         -2.3500    -2.0840    -0.0210 h4         1 36P       0.167000
     33 HAR         -6.7580    -0.7790    -0.0660 h4         1 36P       0.155000
@<TRIPOS>BOND
     1     1     2 1   
     2     1     9 1   
     3     1    22 1   
     4     1    24 1   
     5     2     3 1   
     6     2    23 1   
     7     2    25 1   
     8     3     4 ar  
     9     3     8 ar  
    10     4     5 ar  
    11     4    26 1   
    12     5     6 ar  
    13     5    27 1   
    14     6     7 ar  
    15     6    28 1   
    16     7     8 ar  
    17     7    29 1   
    18     8     9 1   
    19     9    10 1   
    20    10    11 2   
    21    10    12 1   
    22    12    13 1   
    23    12    14 2   
    24    13    16 2   
    25    14    15 1   
    26    14    30 1   
    27    15    16 1   
    28    16    17 1   
    29    17    18 1   
    30    17    21 2   
    31    18    19 2   
    32    18    31 1   
    33    19    20 1   
    34    19    33 1   
    35    20    21 1   
    36    21    32 1   
@<TRIPOS>SUBSTRUCTURE
     1 36P         1 TEMP              0 ****  ****    0 ROOT
