@<TRIPOS>MOLECULE
36P
   33    36     1     0     0
SMALL
abcg2


@<TRIPOS>ATOM
      1 CAO          1.3280    -1.2500    -0.5250 c5         1 36P       0.114000
      2 CAS          2.4950    -2.1480    -0.9450 c5         1 36P      -0.046100
      3 CAN          3.6740    -1.4850    -0.3000 ca         1 36P      -0.135300
      4 CAM          4.9570    -1.9620    -0.1110 ca         1 36P      -0.075000
      5 CAL          5.9030    -1.1400     0.4950 ca         1 36P      -0.134000
      6 CAB          5.5510     0.1410     0.8980 ca         1 36P      -0.092000
      7 CAC          4.2640     0.6350     0.7090 ca         1 36P      -0.110000
      8 CAD          3.3300    -0.1970     0.1040 ca         1 36P      -0.032000
      9 NAE          1.9660     0.0290    -0.1610 n          1 36P      -0.207400
     10 CAF          1.3940     1.2560    -0.2110 c          1 36P       0.547600
     11 OAA          2.0370     2.2910    -0.1200 o          1 36P      -0.585100
     12 CAG         -0.0810     1.3320    -0.3830 cc         1 36P       0.229500
     13 NAH         -0.9320     0.3830     0.0930 nc         1 36P      -0.638000
     14 CAP         -0.6770     2.4080    -0.9700 cd         1 36P      -0.216000
     15 SAQ         -2.3690     2.2120    -0.9460 ss         1 36P       0.001600
     16 CAI         -2.1700     0.6980    -0.1220 cd         1 36P       0.515900
     17 CAJ         -3.3050    -0.1170     0.2730 cd         1 36P      -0.172500
     18 CAK         -4.6760     0.2450     0.1040 cd         1 36P      -0.117000
     19 CAR         -5.5250    -0.7100     0.5640 cc         1 36P      -0.248000
     20 SAU         -4.6760    -2.0540     1.2060 ss         1 36P       0.238000
     21 CAT         -3.1650    -1.3460     0.8620 cc         1 36P      -0.203000
     22 HAO1         0.6030    -1.1100    -1.3210 h1         1 36P       0.061700
     23 HAS1         2.3460    -3.1760    -0.6170 hc         1 36P       0.059700
     24 HAO2         0.8080    -1.6610     0.3400 h1         1 36P       0.061700
     25 HAS2         2.6130    -2.1640    -2.0310 hc         1 36P       0.059700
     26 HAM          5.2190    -2.9620    -0.4310 ha         1 36P       0.113000
     27 HAL          6.9120    -1.4990     0.6540 ha         1 36P       0.113000
     28 HAB          6.2890     0.7750     1.3730 ha         1 36P       0.113000
     29 HAC          4.0170     1.6320     1.0360 ha         1 36P       0.143000
     30 HAP         -0.2140     3.2780    -1.4070 h4         1 36P       0.179000
     31 HAK         -5.0170     1.1720    -0.3360 ha         1 36P       0.139000
     32 HAT         -2.2450    -1.8570     1.0990 h4         1 36P       0.167000
     33 HAR         -6.6030    -0.6930     0.5620 h4         1 36P       0.155000
@<TRIPOS>BOND
     1     1     2 1   
     2     1     9 1   
     3     1    22 1   
     4     1    24 1   
     5     2     3 1   
     6     2    23 1   
     7     2    25 1   
     8     3     4 ar  
     9     3     8 ar  
    10     4     5 ar  
    11     4    26 1   
    12     5     6 ar  
    13     5    27 1   
    14     6     7 ar  
    15     6    28 1   
    16     7     8 ar  
    17     7    29 1   
    18     8     9 1   
    19     9    10 1   
    20    10    11 2   
    21    10    12 1   
    22    12    13 1   
    23    12    14 2   
    24    13    16 2   
    25    14    15 1   
    26    14    30 1   
    27    15    16 1   
    28    16    17 1   
    29    17    18 1   
    30    17    21 2   
    31    18    19 2   
    32    18    31 1   
    33    19    20 1   
    34    19    33 1   
    35    20    21 1   
    36    21    32 1   
@<TRIPOS>SUBSTRUCTURE
     1 36P         1 TEMP              0 ****  ****    0 ROOT
