@<TRIPOS>MOLECULE
36Q
   35    37     1     0     0
SMALL
abcg2


@<TRIPOS>ATOM
      1 C4          -2.3500    -0.0550    -0.0960 ca         1 36Q      -0.082300
      2 C5          -1.8070     0.9710    -0.8650 ca         1 36Q      -0.099500
      3 C6          -1.7890     2.2780    -0.3980 ca         1 36Q      -0.109500
      4 C7          -2.2650    -1.4840    -0.5480 c3         1 36Q      -0.050100
      5 C8          -0.9780    -2.1580    -0.0370 c3         1 36Q       0.235500
      6 C10         -0.8890    -3.6170    -0.4480 c3         1 36Q       0.150600
      7 N12          0.2020    -1.4490    -0.4850 nu         1 36Q      -0.902100
      8 C13          0.8070    -0.4680     0.2030 ca         1 36Q       0.452900
      9 C15          2.3090     1.3620     0.4000 ca         1 36Q       0.124500
     10 C21          1.1370     0.7190     2.1420 ca         1 36Q       0.184900
     11 C1          -2.3270     2.5800     0.8450 ca         1 36Q      -0.109000
     12 C2          -2.8900     1.5680     1.6130 ca         1 36Q      -0.109500
     13 C3          -2.8970     0.2630     1.1440 ca         1 36Q      -0.099500
     14 O11         -0.8140    -3.6930    -1.8540 oh         1 36Q      -0.667000
     15 C14          1.7620     0.3710    -0.4020 ca         1 36Q      -0.101600
     16 N16          3.1620     2.0360    -0.4180 na         1 36Q      -0.414300
     17 C18          3.0930     1.4410    -1.6410 cc         1 36Q       0.394700
     18 N19          2.2630     0.4380    -1.6760 nd         1 36Q      -0.551100
     19 N20          2.0270     1.5820     1.6840 nb         1 36Q      -0.223000
     20 N22          0.5330    -0.2720     1.4930 nb         1 36Q      -0.294000
     21 H1          -1.3840     0.7420    -1.8360 ha         1 36Q       0.110000
     22 H2          -1.3530     3.0610    -1.0050 ha         1 36Q       0.110500
     23 H3          -3.1180    -2.0520    -0.1670 hc         1 36Q       0.058700
     24 H4          -2.3030    -1.5430    -1.6380 hc         1 36Q       0.058700
     25 H5          -0.9830    -2.1270     1.0520 h1         1 36Q       0.091700
     26 H6          -0.0070    -4.0620     0.0270 h1         1 36Q       0.031700
     27 H7          -1.7700    -4.1430    -0.0580 h1         1 36Q       0.031700
     28 H8           0.4190    -1.5050    -1.4680 hn         1 36Q       0.516000
     29 H9           0.8610     0.8270     3.1850 h5         1 36Q       0.044100
     30 H10         -2.3150     3.5990     1.2110 ha         1 36Q       0.110000
     31 H11         -3.3200     1.7970     2.5800 ha         1 36Q       0.110500
     32 H12         -3.3280    -0.5230     1.7540 ha         1 36Q       0.110000
     33 H13         -0.6220    -4.6020    -2.1000 ho         1 36Q       0.448000
     34 H14          3.7370     2.8280    -0.1730 hn         1 36Q       0.368000
     35 H15          3.6850     1.7940    -2.4710 h5         1 36Q       0.064800
@<TRIPOS>BOND
     1     1     2 ar  
     2     1     4 1   
     3     1    13 ar  
     4     2     3 ar  
     5     2    21 1   
     6     3    11 ar  
     7     3    22 1   
     8     4     5 1   
     9     4    23 1   
    10     4    24 1   
    11     5     6 1   
    12     5     7 1   
    13     5    25 1   
    14     6    14 1   
    15     6    26 1   
    16     6    27 1   
    17     7     8 1   
    18     7    28 1   
    19     8    15 ar  
    20     8    20 ar  
    21     9    15 ar  
    22     9    16 1   
    23     9    19 ar  
    24    10    19 ar  
    25    10    20 ar  
    26    10    29 1   
    27    11    12 ar  
    28    11    30 1   
    29    12    13 ar  
    30    12    31 1   
    31    13    32 1   
    32    14    33 1   
    33    15    18 1   
    34    16    17 1   
    35    16    34 1   
    36    17    18 2   
    37    17    35 1   
@<TRIPOS>SUBSTRUCTURE
     1 36Q         1 TEMP              0 ****  ****    0 ROOT
