@<TRIPOS>MOLECULE
36Q
   35    37     1     0     0
SMALL
No Charge or Current Charge


@<TRIPOS>ATOM
      1 C4          -2.1770     0.0360    -0.1080 ca         1 36Q      -0.082300
      2 C5          -1.6490     1.1480    -0.7950 ca         1 36Q      -0.099500
      3 C6          -1.7390     2.4350    -0.2370 ca         1 36Q      -0.109500
      4 C7          -2.0480    -1.3680    -0.6940 c3         1 36Q      -0.050100
      5 C8          -0.9700    -2.2480     0.0040 c3         1 36Q       0.235500
      6 C10         -1.0130    -3.7280    -0.4950 c3         1 36Q       0.150600
      7 N12          0.3840    -1.6890    -0.2030 nu         1 36Q      -0.902100
      8 C13          0.8990    -0.5420     0.3850 ca         1 36Q       0.452900
      9 C15          2.1930     1.4600     0.2880 ca         1 36Q       0.124500
     10 C21          1.0420     0.8910     2.1740 ca         1 36Q       0.184900
     11 C1          -2.3640     2.6210     1.0070 ca         1 36Q      -0.109000
     12 C2          -2.9000     1.5180     1.6930 ca         1 36Q      -0.109500
     13 C3          -2.8070     0.2300     1.1380 ca         1 36Q      -0.099500
     14 O11         -0.6220    -3.8410    -1.8810 oh         1 36Q      -0.667000
     15 C14          1.7500     0.3230    -0.3350 ca         1 36Q      -0.101600
     16 N16          2.9670     2.0890    -0.6370 na         1 36Q      -0.414300
     17 C18          2.9760     1.3230    -1.8000 cc         1 36Q       0.394700
     18 N19          2.2270     0.2160    -1.6480 nd         1 36Q      -0.551100
     19 N20          1.8550     1.7770     1.5500 nb         1 36Q      -0.223000
     20 N22          0.5470    -0.2590     1.6560 nb         1 36Q      -0.294000
     21 H1          -1.1530     1.0130    -1.7530 ha         1 36Q       0.110000
     22 H2          -1.3210     3.2870    -0.7680 ha         1 36Q       0.110500
     23 H3          -3.0160    -1.8760    -0.6140 hc         1 36Q       0.058700
     24 H4          -1.8290    -1.3130    -1.7670 hc         1 36Q       0.058700
     25 H5          -1.1990    -2.2760     1.0790 h1         1 36Q       0.091700
     26 H6          -0.3400    -4.3270     0.1330 h1         1 36Q       0.031700
     27 H7          -2.0280    -4.1230    -0.3520 h1         1 36Q       0.031700
     28 H8           0.7620    -1.8390    -1.1390 hn         1 36Q       0.516000
     29 H9           0.7560     1.1280     3.1970 h5         1 36Q       0.044100
     30 H10         -2.4330     3.6170     1.4390 ha         1 36Q       0.110000
     31 H11         -3.3840     1.6600     2.6570 ha         1 36Q       0.110500
     32 H12         -3.2180    -0.6190     1.6790 ha         1 36Q       0.110000
     33 H13         -0.6410    -4.7980    -2.1070 ho         1 36Q       0.448000
     34 H14          3.4560     2.9640    -0.5090 hn         1 36Q       0.368000
     35 H15          3.5250     1.6150    -2.6890 h5         1 36Q       0.064800
@<TRIPOS>BOND
     1     1     2 ar  
     2     1     4 1   
     3     1    13 ar  
     4     2     3 ar  
     5     2    21 1   
     6     3    11 ar  
     7     3    22 1   
     8     4     5 1   
     9     4    23 1   
    10     4    24 1   
    11     5     6 1   
    12     5     7 1   
    13     5    25 1   
    14     6    14 1   
    15     6    26 1   
    16     6    27 1   
    17     7     8 1   
    18     7    28 1   
    19     8    15 ar  
    20     8    20 ar  
    21     9    15 ar  
    22     9    16 1   
    23     9    19 ar  
    24    10    19 ar  
    25    10    20 ar  
    26    10    29 1   
    27    11    12 ar  
    28    11    30 1   
    29    12    13 ar  
    30    12    31 1   
    31    13    32 1   
    32    14    33 1   
    33    15    18 1   
    34    16    17 1   
    35    16    34 1   
    36    17    18 2   
    37    17    35 1   
@<TRIPOS>SUBSTRUCTURE
     1 36Q         1 TEMP              0 ****  ****    0 ROOT
