@<TRIPOS>MOLECULE
36R
   16    17     1     0     0
SMALL
No Charge or Current Charge


@<TRIPOS>ATOM
      1 C4          -0.5990     0.5590    -0.0530 ca         1 36R       0.107400
      2 C5           0.7360     0.9860    -0.0320 ca         1 36R      -0.064000
      3 C6           1.7540     0.0070     0.0040 ca         1 36R       0.116000
      4 C1           1.4350    -1.3730     0.0170 ca         1 36R      -0.107000
      5 C2           0.0870    -1.7910    -0.0040 ca         1 36R      -0.073000
      6 C3          -0.8850    -0.7870    -0.0390 ca         1 36R       0.009100
      7 Cl7          3.4400     0.5070     0.0310 cl         1 36R      -0.202000
      8 N8          -1.7620     1.3390    -0.0860 nc         1 36R      -0.652100
      9 C9          -2.6760     0.3730    -0.0970 cd         1 36R       0.767500
     10 O10         -2.2210    -0.9060    -0.0630 os         1 36R      -0.306700
     11 N11         -3.9810     0.6320    -0.0960 nv         1 36R      -1.018200
     12 H1           0.9810     2.0440    -0.0420 ha         1 36R       0.148000
     13 H2           2.2320    -2.1120     0.0450 ha         1 36R       0.134000
     14 H3          -0.1850    -2.8440     0.0060 ha         1 36R       0.135000
     15 H4          -4.2230     1.5680     0.2020 hn         1 36R       0.503000
     16 H5          -4.5770    -0.1100     0.2480 hn         1 36R       0.503000
@<TRIPOS>BOND
     1     1     2 ar  
     2     1     6 ar  
     3     1     8 1   
     4     2     3 ar  
     5     2    12 1   
     6     3     4 ar  
     7     3     7 1   
     8     4     5 ar  
     9     4    13 1   
    10     5     6 ar  
    11     5    14 1   
    12     6    10 1   
    13     8     9 2   
    14     9    10 1   
    15     9    11 1   
    16    11    15 1   
    17    11    16 1   
@<TRIPOS>SUBSTRUCTURE
     1 36R         1 TEMP              0 ****  ****    0 ROOT
