@<TRIPOS>MOLECULE
36R
   16    17     1     0     0
SMALL
abcg2


@<TRIPOS>ATOM
      1 C4          -0.5550     0.5930    -0.0250 ca         1 36R       0.107400
      2 C5           0.7710     1.0000    -0.0240 ca         1 36R      -0.064000
      3 C6           1.7300    -0.0060    -0.0110 ca         1 36R       0.116000
      4 C1           1.4120    -1.3610     0.0010 ca         1 36R      -0.107000
      5 C2           0.0790    -1.7680    -0.0000 ca         1 36R      -0.073000
      6 C3          -0.8600    -0.7670    -0.0140 ca         1 36R       0.009100
      7 CL7          3.4070     0.4500    -0.0070 cl         1 36R      -0.202000
      8 N8          -1.7260     1.3190    -0.0310 nc         1 36R      -0.652100
      9 C9          -2.6550     0.4120    -0.0260 cd         1 36R       0.767500
     10 O10         -2.2200    -0.8680    -0.0150 os         1 36R      -0.306700
     11 N11         -3.9750     0.5950    -0.0730 nv         1 36R      -1.018200
     12 H1           1.0440     2.0460    -0.0320 ha         1 36R       0.148000
     13 H2           2.1980    -2.1020     0.0110 ha         1 36R       0.134000
     14 H3          -0.1850    -2.8170     0.0090 ha         1 36R       0.135000
     15 H4          -4.3190     1.5260     0.0920 hn         1 36R       0.503000
     16 H5          -4.5910    -0.1580     0.1860 hn         1 36R       0.503000
@<TRIPOS>BOND
     1     1     2 ar  
     2     1     6 ar  
     3     1     8 1   
     4     2     3 ar  
     5     2    12 1   
     6     3     4 ar  
     7     3     7 1   
     8     4     5 ar  
     9     4    13 1   
    10     5     6 ar  
    11     5    14 1   
    12     6    10 1   
    13     8     9 2   
    14     9    10 1   
    15     9    11 1   
    16    11    15 1   
    17    11    16 1   
@<TRIPOS>SUBSTRUCTURE
     1 36R         1 TEMP              0 ****  ****    0 ROOT
