@<TRIPOS>MOLECULE
36S
   56    59     1     0     0
SMALL
bcc


@<TRIPOS>ATOM
      1 CAB          5.8440    -2.7000    -0.9000 c3         1 36S       0.124700
      2 OAS          5.0550    -1.5450    -0.6970 os         1 36S      -0.299900
      3 CAV          5.6410    -0.4300    -0.2420 ca         1 36S       0.175100
      4 CAF          7.0140    -0.2910    -0.0530 ca         1 36S      -0.223000
      5 CAD          7.5400     0.9230     0.3700 ca         1 36S      -0.077000
      6 CAE          6.7130     2.0090     0.6090 ca         1 36S      -0.171000
      7 CAG          5.3440     1.8660     0.4360 ca         1 36S      -0.081000
      8 CAW          4.7900     0.6570     0.0250 ca         1 36S      -0.086800
      9 CAX          3.3410     0.5400    -0.1370 cc         1 36S       0.018700
     10 NAR          2.6310     1.4640    -0.8590 na         1 36S      -0.164400
     11 CAU          2.4440    -0.3480     0.3980 cd         1 36S      -0.011800
     12 CL           2.8050    -1.6440     1.4570 cl         1 36S      -0.084400
     13 CAZ          1.1350     0.0300    -0.0090 ca         1 36S      -0.093800
     14 CAJ         -0.1480    -0.4770     0.2290 ca         1 36S      -0.066000
     15 CAY          1.2980     1.1770    -0.8090 ca         1 36S      -0.040200
     16 CAI          0.2040     1.8140    -1.3920 ca         1 36S      -0.148000
     17 CAH         -1.0480     1.2880    -1.1450 ca         1 36S      -0.100000
     18 CAT         -1.2430     0.1480    -0.3360 ca         1 36S      -0.104300
     19 CBA         -2.6340    -0.3740    -0.0810 c6         1 36S      -0.012400
     20 CAM         -3.5080     0.6320     0.6720 c6         1 36S      -0.070400
     21 CAP         -4.9030     0.0760     0.9080 c6         1 36S       0.167300
     22 CAL         -3.3600    -0.7970    -1.3570 c6         1 36S      -0.070400
     23 CAO         -4.7570    -1.3050    -1.0380 c6         1 36S       0.167300
     24 NBB         -5.5450    -0.3040    -0.3390 n3         1 36S      -0.721600
     25 CAN         -6.9080    -0.7600    -0.1420 c3         1 36S       0.164800
     26 C1          -7.8680     0.3570     0.2440 c3         1 36S       0.153800
     27 H1           6.6050    -2.5450    -1.6690 h1         1 36S       0.042700
     28 H2           6.3340    -3.0250     0.0210 h1         1 36S       0.042700
     29 H3           5.1650    -3.4810    -1.2320 h1         1 36S       0.042700
     30 H4           7.6880    -1.1150    -0.2420 ha         1 36S       0.138000
     31 H5           8.6090     1.0120     0.5080 ha         1 36S       0.131000
     32 H6           7.1230     2.9540     0.9370 ha         1 36S       0.136000
     33 H7           4.6860     2.7010     0.6420 ha         1 36S       0.135000
     34 H8           3.0500     2.1990    -1.4070 hn         1 36S       0.301700
     35 H9          -0.2790    -1.3520     0.8550 ha         1 36S       0.138000
     36 H10          0.3270     2.6920    -2.0140 ha         1 36S       0.132000
     37 H11         -1.9080     1.7760    -1.5890 ha         1 36S       0.131000
     38 H12         -2.5450    -1.2650     0.5530 hc         1 36S       0.047700
     39 H13         -3.0520     0.8830     1.6330 hc         1 36S       0.049200
     40 H14         -3.5810     1.5640     0.1020 hc         1 36S       0.049200
     41 H15         -4.8390    -0.7840     1.5990 h1         1 36S       0.029950
     42 H16         -5.5060     0.8350     1.4100 h1         1 36S       0.029950
     43 H17         -3.4340     0.0480    -2.0480 hc         1 36S       0.049200
     44 H18         -2.8000    -1.5830    -1.8700 hc         1 36S       0.049200
     45 H19         -5.2730    -1.5680    -1.9650 h1         1 36S       0.029950
     46 H20         -4.6760    -2.2370    -0.4490 h1         1 36S       0.029950
     47 H22         -7.2520    -1.1930    -1.0870 h1         1 36S       0.035700
     48 H23         -6.9690    -1.5660     0.6100 h1         1 36S       0.035700
     49 H24         -7.6070     0.7660     1.2240 h1         1 36S       0.036700
     50 H25         -7.7610     1.1850    -0.4770 h1         1 36S       0.036700
     51 N1          -9.2210    -0.1540     0.3280 n7         1 36S      -0.807200
     52 C3         -10.1740     0.8520     0.7480 c3         1 36S       0.146100
     53 H21         -9.4970    -0.5030    -0.5810 hn         1 36S       0.348800
     54 H26         -9.9430     1.1790     1.7640 h1         1 36S       0.028700
     55 H27        -10.1940     1.7490     0.1120 h1         1 36S       0.028700
     56 H28        -11.1790     0.4290     0.7600 h1         1 36S       0.028700
@<TRIPOS>BOND
     1     1     2 1   
     2     1    27 1   
     3     1    28 1   
     4     1    29 1   
     5     2     3 1   
     6     3     4 ar  
     7     3     8 ar  
     8     4     5 ar  
     9     4    30 1   
    10     5     6 ar  
    11     5    31 1   
    12     6     7 ar  
    13     6    32 1   
    14     7     8 ar  
    15     7    33 1   
    16     8     9 1   
    17     9    10 1   
    18     9    11 2   
    19    10    15 1   
    20    10    34 1   
    21    11    12 1   
    22    11    13 1   
    23    13    14 ar  
    24    13    15 ar  
    25    14    18 ar  
    26    14    35 1   
    27    15    16 ar  
    28    16    17 ar  
    29    16    36 1   
    30    17    18 ar  
    31    17    37 1   
    32    18    19 1   
    33    19    20 1   
    34    19    22 1   
    35    19    38 1   
    36    20    21 1   
    37    20    39 1   
    38    20    40 1   
    39    21    24 1   
    40    21    41 1   
    41    21    42 1   
    42    22    23 1   
    43    22    43 1   
    44    22    44 1   
    45    23    24 1   
    46    23    45 1   
    47    23    46 1   
    48    24    25 1   
    49    25    26 1   
    50    25    47 1   
    51    25    48 1   
    52    26    49 1   
    53    26    50 1   
    54    26    51 1   
    55    51    52 1   
    56    51    53 1   
    57    52    54 1   
    58    52    55 1   
    59    52    56 1   
@<TRIPOS>SUBSTRUCTURE
     1 36S         1 TEMP              0 ****  ****    0 ROOT
