@<TRIPOS>MOLECULE
36S
   56    59     1     0     0
SMALL
No Charge or Current Charge


@<TRIPOS>ATOM
      1 CAB          5.8430    -2.8320    -0.9280 c3         1 36S       0.147900
      2 OAS          5.1030    -1.6170    -0.7210 os         1 36S      -0.323100
      3 CAV          5.6820    -0.4730    -0.2000 ca         1 36S       0.175100
      4 CAF          7.0610    -0.4120     0.1070 ca         1 36S      -0.205000
      5 CAD          7.6270     0.7790     0.5900 ca         1 36S      -0.059000
      6 CAE          6.8250     1.9170     0.7620 ca         1 36S      -0.153000
      7 CAG          5.4550     1.8650     0.4610 ca         1 36S      -0.063000
      8 CAW          4.8720     0.6710    -0.0080 ca         1 36S      -0.086800
      9 CAX          3.4400     0.6550    -0.3070 cc         1 36S       0.018700
     10 NAR          2.6920     1.5830    -1.0520 na         1 36S      -0.214700
     11 CAU          2.5110    -0.1880     0.2900 cd         1 36S       0.063800
     12 Cl           2.8000    -1.4210     1.4820 cl         1 36S      -0.160000
     13 CAZ          1.1820     0.1840    -0.1310 ca         1 36S      -0.093800
     14 CAJ         -0.0780    -0.3490     0.1680 ca         1 36S      -0.048000
     15 CAY          1.3430     1.2690    -0.9520 ca         1 36S      -0.040200
     16 CAI          0.2450     1.9030    -1.5420 ca         1 36S      -0.130000
     17 CAH         -1.0420     1.3900    -1.2680 ca         1 36S      -0.082000
     18 CAT         -1.2130     0.2650    -0.4140 ca         1 36S      -0.104300
     19 CBA         -2.6140    -0.2890    -0.1150 c6         1 36S      -0.012400
     20 CAM         -3.5140     0.7480     0.6030 c6         1 36S      -0.070400
     21 CAP         -4.9240     0.1710     0.8800 c6         1 36S       0.167300
     22 CAL         -3.3330    -0.7890    -1.3930 c6         1 36S      -0.070400
     23 CAO         -4.7450    -1.3300    -1.0610 c6         1 36S       0.167300
     24 NBB         -5.5820    -0.3070    -0.3720 n3         1 36S      -0.721600
     25 CAN         -6.9760    -0.7890    -0.1620 c3         1 36S       0.164800
     26 C1          -7.9870     0.2790     0.3520 c3         1 36S       0.153800
     27 H1           6.6640    -2.6730    -1.6390 h1         1 36S       0.042700
     28 H2           6.2600    -3.2000     0.0180 h1         1 36S       0.042700
     29 H3           5.1870    -3.6100    -1.3360 h1         1 36S       0.042700
     30 H4           7.7090    -1.2720    -0.0300 ha         1 36S       0.120000
     31 H5           8.6900     0.8220     0.8240 ha         1 36S       0.113000
     32 H6           7.2660     2.8410     1.1310 ha         1 36S       0.118000
     33 H7           4.8410     2.7510     0.6040 ha         1 36S       0.117000
     34 H8           3.0760     2.3650    -1.5710 hn         1 36S       0.352000
     35 H9          -0.1740    -1.2090     0.8270 ha         1 36S       0.120000
     36 H10          0.3760     2.7660    -2.1920 ha         1 36S       0.114000
     37 H11         -1.9070     1.8700    -1.7180 ha         1 36S       0.113000
     38 H12         -2.5070    -1.1510     0.5590 hc         1 36S       0.047700
     39 H13         -3.0500     1.0540     1.5500 hc         1 36S       0.049200
     40 H14         -3.6120     1.6570    -0.0060 hc         1 36S       0.049200
     41 H15         -4.8390    -0.6550     1.6020 h1         1 36S       0.029950
     42 H16         -5.5230     0.9580     1.3580 h1         1 36S       0.029950
     43 H17         -3.4220     0.0230    -2.1270 hc         1 36S       0.049200
     44 H18         -2.7390    -1.5800    -1.8710 hc         1 36S       0.049200
     45 H19         -5.2260    -1.6460    -1.9980 h1         1 36S       0.029950
     46 H20         -4.6470    -2.2260    -0.4310 h1         1 36S       0.029950
     47 H22         -7.3650    -1.1740    -1.1150 h1         1 36S       0.035700
     48 H23         -6.9740    -1.6320     0.5430 h1         1 36S       0.035700
     49 H24         -7.6790     0.6120     1.3520 h1         1 36S       0.036700
     50 H25         -7.9430     1.1500    -0.3160 h1         1 36S       0.036700
     51 N1          -9.3710    -0.2530     0.4070 n7         1 36S      -0.862400
     52 C3         -10.3850     0.6940     0.9090 c3         1 36S       0.146100
     53 H21         -9.6430    -0.5370    -0.5440 hn         1 36S       0.404000
     54 H26        -10.1440     1.0210     1.9300 h1         1 36S       0.028700
     55 H27        -10.4400     1.5850     0.2680 h1         1 36S       0.028700
     56 H28        -11.3780     0.2250     0.9260 h1         1 36S       0.028700
@<TRIPOS>BOND
     1     1     2 1   
     2     1    27 1   
     3     1    28 1   
     4     1    29 1   
     5     2     3 1   
     6     3     4 ar  
     7     3     8 ar  
     8     4     5 ar  
     9     4    30 1   
    10     5     6 ar  
    11     5    31 1   
    12     6     7 ar  
    13     6    32 1   
    14     7     8 ar  
    15     7    33 1   
    16     8     9 1   
    17     9    10 1   
    18     9    11 2   
    19    10    15 1   
    20    10    34 1   
    21    11    12 1   
    22    11    13 1   
    23    13    14 ar  
    24    13    15 ar  
    25    14    18 ar  
    26    14    35 1   
    27    15    16 ar  
    28    16    17 ar  
    29    16    36 1   
    30    17    18 ar  
    31    17    37 1   
    32    18    19 1   
    33    19    20 1   
    34    19    22 1   
    35    19    38 1   
    36    20    21 1   
    37    20    39 1   
    38    20    40 1   
    39    21    24 1   
    40    21    41 1   
    41    21    42 1   
    42    22    23 1   
    43    22    43 1   
    44    22    44 1   
    45    23    24 1   
    46    23    45 1   
    47    23    46 1   
    48    24    25 1   
    49    25    26 1   
    50    25    47 1   
    51    25    48 1   
    52    26    49 1   
    53    26    50 1   
    54    26    51 1   
    55    51    52 1   
    56    51    53 1   
    57    52    54 1   
    58    52    55 1   
    59    52    56 1   
@<TRIPOS>SUBSTRUCTURE
     1 36S         1 TEMP              0 ****  ****    0 ROOT
