@<TRIPOS>MOLECULE
36U
   37    39     1     0     0
SMALL
No Charge or Current Charge


@<TRIPOS>ATOM
      1 C4          -0.9460    -0.9360     0.5790 ce         1 36U      -0.306600
      2 C14          1.4240    -0.8390     1.5710 c6         1 36U      -0.176400
      3 C6          -3.4300     0.3520     0.3470 ca         1 36U      -0.099000
      4 C11         -4.6250     0.3470    -0.4040 ca         1 36U       0.125000
      5 C7          -2.8140     1.5780     0.6640 ca         1 36U      -0.100000
      6 C8          -3.3830     2.7890     0.2310 ca         1 36U      -0.097000
      7 C9          -4.5700     2.7810    -0.5200 ca         1 36U      -0.107000
      8 C10         -5.1910     1.5600    -0.8360 ca         1 36U      -0.092000
      9 C13         -0.0900    -0.8340     1.8070 c          1 36U       0.602300
     10 C3           1.0560    -0.6060    -0.9430 c6         1 36U      -0.052200
     11 C2          -0.4220    -0.8310    -0.6600 c2         1 36U       0.238900
     12 S5          -2.6920    -1.1830     0.9050 ss         1 36U      -0.032600
     13 Cl1         -5.4210    -1.1660    -0.8300 cl         1 36U      -0.190000
     14 C15          1.8030    -0.0410     0.2960 c6         1 36U      -0.005400
     15 C16          3.3370     0.1410     0.0840 ca         1 36U      -0.057300
     16 C17          4.2180    -0.9640    -0.1180 ca         1 36U       0.130000
     17 Cl2          3.6850    -2.6470    -0.1590 cl         1 36U      -0.195000
     18 C19          5.5970    -0.7600    -0.3050 ca         1 36U      -0.101500
     19 C20          6.1370     0.5300    -0.2980 ca         1 36U      -0.089000
     20 C21          5.2920     1.6280    -0.1060 ca         1 36U      -0.101500
     21 C22          3.9120     1.4460     0.0820 ca         1 36U       0.130000
     22 Cl3          2.9610     2.9200     0.3090 cl         1 36U      -0.195000
     23 O2          -0.5500    -0.7500     2.9370 o          1 36U      -0.511100
     24 H1           1.9450    -0.4910     2.4720 hc         1 36U       0.081200
     25 H2           1.6800    -1.8910     1.4140 hc         1 36U       0.081200
     26 H3          -1.8990     1.5970     1.2500 ha         1 36U       0.120000
     27 H4          -2.9030     3.7330     0.4780 ha         1 36U       0.116000
     28 H5          -5.0090     3.7180    -0.8550 ha         1 36U       0.119000
     29 H6          -6.1090     1.5510    -1.4180 ha         1 36U       0.129000
     30 H7           1.4890    -1.5540    -1.2780 hc         1 36U       0.085700
     31 H8           1.1700     0.0930    -1.7840 hc         1 36U       0.085700
     32 H9          -2.0890    -1.0440    -1.4660 ho         1 36U       0.503000
     33 H10          1.3510     0.9430     0.4580 hc         1 36U       0.071700
     34 H11          6.2510    -1.6150    -0.4570 ha         1 36U       0.137000
     35 H12          7.2060     0.6780    -0.4440 ha         1 36U       0.128000
     36 H13          5.7090     2.6330    -0.1020 ha         1 36U       0.137000
     37 O1          -1.1670    -0.9180    -1.7690 oh         1 36U      -0.511100
@<TRIPOS>BOND
     1     1     9 1   
     2     1    11 2   
     3     1    12 1   
     4     2     9 1   
     5     2    14 1   
     6     2    24 1   
     7     2    25 1   
     8     3     4 ar  
     9     3     5 ar  
    10     3    12 1   
    11     4     8 ar  
    12     4    13 1   
    13     5     6 ar  
    14     5    26 1   
    15     6     7 ar  
    16     6    27 1   
    17     7     8 ar  
    18     7    28 1   
    19     8    29 1   
    20     9    23 2   
    21    10    11 1   
    22    10    14 1   
    23    10    30 1   
    24    10    31 1   
    25    11    37 1   
    26    14    15 1   
    27    14    33 1   
    28    15    16 ar  
    29    15    21 ar  
    30    16    17 1   
    31    16    18 ar  
    32    18    19 ar  
    33    18    34 1   
    34    19    20 ar  
    35    19    35 1   
    36    20    21 ar  
    37    20    36 1   
    38    21    22 1   
    39    32    37 1   
@<TRIPOS>SUBSTRUCTURE
     1 36U         1 TEMP              0 ****  ****    0 ROOT
