@<TRIPOS>MOLECULE
36U
   37    39     1     0     0
SMALL
bcc


@<TRIPOS>ATOM
      1 C4          -0.9210    -0.9760     0.0320 ce         1 36U      -0.306600
      2 C14          1.2100    -0.6670     1.3650 c6         1 36U      -0.176400
      3 C6          -3.3400     0.3660     0.0310 ca         1 36U       0.027900
      4 C11         -4.7260     0.4870     0.1030 ca         1 36U       0.033400
      5 C7          -2.5780     1.5290     0.0140 ca         1 36U      -0.118000
      6 C8          -3.1870     2.7730     0.0720 ca         1 36U      -0.115000
      7 C9          -4.5690     2.8760     0.1480 ca         1 36U      -0.125000
      8 C10         -5.3430     1.7260     0.1630 ca         1 36U      -0.110000
      9 C13         -0.2960    -0.7770     1.3340 c          1 36U       0.602300
     10 C3           1.2880    -0.9080    -1.1470 c6         1 36U      -0.052200
     11 C2          -0.1970    -1.0460    -1.1230 c2         1 36U       0.238900
     12 S5          -2.6530    -1.2660    -0.0240 ss         1 36U      -0.159500
     13 CL1         -5.7020    -0.9450     0.1210 cl         1 36U      -0.098400
     14 C15          1.7660    -0.1010     0.0590 c6         1 36U      -0.005400
     15 C16          3.2600     0.1280     0.0830 ca         1 36U      -0.057300
     16 C17          4.2100    -0.8930     0.2000 ca         1 36U       0.038400
     17 CL2          3.7320    -2.5590     0.3220 cl         1 36U      -0.103400
     18 C19          5.5760    -0.6560     0.2260 ca         1 36U      -0.119500
     19 C20          6.0450     0.6420     0.1380 ca         1 36U      -0.107000
     20 C21          5.1490     1.6890     0.0230 ca         1 36U      -0.119500
     21 C22          3.7890     1.4220    -0.0030 ca         1 36U       0.038400
     22 CL3          2.7460     2.8040    -0.1510 cl         1 36U      -0.103400
     23 O2          -0.9530    -0.7240     2.3560 o          1 36U      -0.511100
     24 H1           1.4960    -0.0370     2.2080 hc         1 36U       0.081200
     25 H2           1.5970    -1.6690     1.5690 hc         1 36U       0.081200
     26 H3          -1.5010     1.4660    -0.0510 ha         1 36U       0.138000
     27 H4          -2.5730     3.6630     0.0580 ha         1 36U       0.134000
     28 H5          -5.0470     3.8450     0.1980 ha         1 36U       0.137000
     29 H6          -6.4220     1.7890     0.2190 ha         1 36U       0.147000
     30 H7           1.7090    -1.9150    -1.1720 hc         1 36U       0.085700
     31 H8           1.5840    -0.4170    -2.0760 hc         1 36U       0.085700
     32 H9          -1.6920    -1.3870    -2.2230 ho         1 36U       0.464000
     33 H10          1.3050     0.8800    -0.0580 hc         1 36U       0.071700
     34 H11          6.2660    -1.4830     0.3150 ha         1 36U       0.155000
     35 H12          7.1080     0.8360     0.1580 ha         1 36U       0.146000
     36 H13          5.5030     2.7080    -0.0460 ha         1 36U       0.155000
     37 O1          -0.7290    -1.2550    -2.3050 oh         1 36U      -0.472100
@<TRIPOS>BOND
     1     1     9 1   
     2     1    11 2   
     3     1    12 1   
     4     2     9 1   
     5     2    14 1   
     6     2    24 1   
     7     2    25 1   
     8     3     4 ar  
     9     3     5 ar  
    10     3    12 1   
    11     4     8 ar  
    12     4    13 1   
    13     5     6 ar  
    14     5    26 1   
    15     6     7 ar  
    16     6    27 1   
    17     7     8 ar  
    18     7    28 1   
    19     8    29 1   
    20     9    23 2   
    21    10    11 1   
    22    10    14 1   
    23    10    30 1   
    24    10    31 1   
    25    11    37 1   
    26    14    15 1   
    27    14    33 1   
    28    15    16 ar  
    29    15    21 ar  
    30    16    17 1   
    31    16    18 ar  
    32    18    19 ar  
    33    18    34 1   
    34    19    20 ar  
    35    19    35 1   
    36    20    21 ar  
    37    20    36 1   
    38    21    22 1   
    39    32    37 1   
@<TRIPOS>SUBSTRUCTURE
     1 36U         1 TEMP              0 ****  ****    0 ROOT
