@<TRIPOS>MOLECULE
36X
   30    32     1     0     0
SMALL
bcc


@<TRIPOS>ATOM
      1 N1          -0.0590     2.8320    -0.0600 n2         1 36X      -0.804100
      2 C6          -0.0020     1.5380    -0.0320 cc         1 36X       0.562900
      3 C5          -1.2020     0.7390     0.0000 cc         1 36X      -0.277800
      4 C4          -2.6090     1.2480     0.0430 c5         1 36X      -0.015700
      5 C3          -3.4500    -0.0100    -0.2440 c5         1 36X      -0.077400
      6 C2          -2.5500    -1.2120     0.0960 c5         1 36X      -0.041700
      7 C1          -1.1770    -0.6160     0.0300 cd         1 36X       0.106800
      8 C7           1.1880     0.7190    -0.0300 cc         1 36X      -0.277800
      9 C11          1.1450    -0.6390     0.0030 cd         1 36X       0.106800
     10 N           -0.0210    -1.3410     0.0420 na         1 36X      -0.486200
     11 C           -0.0630    -2.7930     0.0010 c3         1 36X       0.209100
     12 C10          2.5130    -1.2520    -0.0560 c5         1 36X      -0.041700
     13 C9           3.4310    -0.0480     0.2180 c5         1 36X      -0.077400
     14 C8           2.6040     1.2060    -0.1160 c5         1 36X      -0.015700
     15 H1           0.8820     3.2170    -0.0880 hn         1 36X       0.361400
     16 H3          -2.8370     1.6740     1.0260 hc         1 36X       0.055950
     17 H4          -4.3860    -0.0280     0.3130 hc         1 36X       0.046950
     18 H5          -2.7450    -1.6000     1.1020 hc         1 36X       0.053700
     19 H6          -0.3060    -3.1550    -0.9990 h1         1 36X       0.047367
     20 H7           0.8980    -3.2030     0.2920 h1         1 36X       0.047367
     21 H9           2.6630    -2.0500     0.6720 hc         1 36X       0.053700
     22 H10          2.6890    -1.6870    -1.0450 hc         1 36X       0.053700
     23 H11          3.6990    -0.0360     1.2750 hc         1 36X       0.046950
     24 H12          4.3590    -0.1020    -0.3500 hc         1 36X       0.046950
     25 H13          2.8250     1.5850    -1.1190 hc         1 36X       0.055950
     26 H14          2.8170     2.0250     0.5770 hc         1 36X       0.055950
     27 H16         -2.7900     2.0420    -0.6850 hc         1 36X       0.055950
     28 H17         -3.7040    -0.0440    -1.3040 hc         1 36X       0.046950
     29 H18         -2.6930    -2.0450    -0.5950 hc         1 36X       0.053700
     30 H2          -0.8090    -3.1670     0.6990 h1         1 36X       0.047367
@<TRIPOS>BOND
     1     1     2 2   
     2     1    15 1   
     3     2     3 1   
     4     2     8 1   
     5     3     4 1   
     6     3     7 2   
     7     4     5 1   
     8     4    16 1   
     9     4    27 1   
    10     5     6 1   
    11     5    17 1   
    12     5    28 1   
    13     6     7 1   
    14     6    18 1   
    15     6    29 1   
    16     7    10 1   
    17     8     9 2   
    18     8    14 1   
    19     9    10 1   
    20     9    12 1   
    21    10    11 1   
    22    11    19 1   
    23    11    20 1   
    24    11    30 1   
    25    12    13 1   
    26    12    21 1   
    27    12    22 1   
    28    13    14 1   
    29    13    23 1   
    30    13    24 1   
    31    14    25 1   
    32    14    26 1   
@<TRIPOS>SUBSTRUCTURE
     1 36X         1 TEMP              0 ****  ****    0 ROOT
