@<TRIPOS>MOLECULE
36X
   30    32     1     0     0
SMALL
No Charge or Current Charge


@<TRIPOS>ATOM
      1 N1          -0.0050     2.7020    -0.0460 n2         1 36X      -0.804100
      2 C6          -0.0150     1.4070    -0.0240 cc         1 36X       0.562900
      3 C5          -1.2080     0.6390     0.0320 cc         1 36X      -0.277800
      4 C4          -2.5560     1.2920     0.0690 c5         1 36X      -0.015700
      5 C3          -3.5170     0.1040    -0.2550 c5         1 36X      -0.077400
      6 C2          -2.6730    -1.1660     0.1300 c5         1 36X      -0.041700
      7 C1          -1.2300    -0.7210     0.0520 cd         1 36X       0.106800
      8 C7           1.1700     0.6260    -0.0600 cc         1 36X      -0.277800
      9 C11          1.1760    -0.7360    -0.0410 cd         1 36X       0.106800
     10 N           -0.0310    -1.4630     0.0210 na         1 36X      -0.486200
     11 C           -0.0350    -2.9430     0.0370 c3         1 36X       0.209100
     12 C10          2.6100    -1.2030    -0.1300 c5         1 36X      -0.041700
     13 C9           3.4780     0.0650     0.2100 c5         1 36X      -0.077400
     14 C8           2.5280     1.2580    -0.1270 c5         1 36X      -0.015700
     15 H1           0.9710     3.0150    -0.0920 hn         1 36X       0.361400
     16 H3          -2.7580     1.7130     1.0610 hc         1 36X       0.055950
     17 H4          -4.4670     0.1650     0.2890 hc         1 36X       0.046950
     18 H5          -2.9180    -1.5030     1.1440 hc         1 36X       0.053700
     19 H6           0.0820    -3.3230    -0.9850 h1         1 36X       0.047367
     20 H7           0.7910    -3.3150     0.6550 h1         1 36X       0.047367
     21 H9           2.8290    -2.0270     0.5580 hc         1 36X       0.053700
     22 H10          2.8350    -1.5680    -1.1390 hc         1 36X       0.053700
     23 H11          3.7350     0.0740     1.2750 hc         1 36X       0.046950
     24 H12          4.4190     0.0990    -0.3500 hc         1 36X       0.046950
     25 H13          2.7260     1.6530    -1.1310 hc         1 36X       0.055950
     26 H14          2.6560     2.0820     0.5850 hc         1 36X       0.055950
     27 H16         -2.6580     2.1040    -0.6610 hc         1 36X       0.055950
     28 H17         -3.7570     0.0910    -1.3240 hc         1 36X       0.046950
     29 H18         -2.8900    -2.0050    -0.5410 hc         1 36X       0.053700
     30 H2          -0.9770    -3.3200     0.4540 h1         1 36X       0.047367
@<TRIPOS>BOND
     1     1     2 2   
     2     1    15 1   
     3     2     3 1   
     4     2     8 1   
     5     3     4 1   
     6     3     7 2   
     7     4     5 1   
     8     4    16 1   
     9     4    27 1   
    10     5     6 1   
    11     5    17 1   
    12     5    28 1   
    13     6     7 1   
    14     6    18 1   
    15     6    29 1   
    16     7    10 1   
    17     8     9 2   
    18     8    14 1   
    19     9    10 1   
    20     9    12 1   
    21    10    11 1   
    22    11    19 1   
    23    11    20 1   
    24    11    30 1   
    25    12    13 1   
    26    12    21 1   
    27    12    22 1   
    28    13    14 1   
    29    13    23 1   
    30    13    24 1   
    31    14    25 1   
    32    14    26 1   
@<TRIPOS>SUBSTRUCTURE
     1 36X         1 TEMP              0 ****  ****    0 ROOT
