@<TRIPOS>MOLECULE
36Y
   19    20     1     0     0
SMALL
No Charge or Current Charge


@<TRIPOS>ATOM
      1 C2          -4.8840     0.7690     0.0390 cc         1 36Y       0.393400
      2 C5          -3.6670    -1.0970     0.0130 cc         1 36Y      -0.209000
      3 C4          -2.8560     0.0120     0.0150 cd         1 36Y       0.288500
      4 C6          -1.3760     0.0280     0.0010 ca         1 36Y      -0.085500
      5 C7          -0.6660     1.2520     0.0050 ca         1 36Y      -0.097000
      6 C8           0.7400     1.2660    -0.0080 ca         1 36Y      -0.087500
      7 C9           1.4540     0.0580    -0.0240 ca         1 36Y      -0.019900
      8 C10          0.7650    -1.1640    -0.0270 ca         1 36Y      -0.087500
      9 Br           3.3660     0.0780    -0.0400 br         1 36Y      -0.105100
     10 C11         -0.6410    -1.1790    -0.0140 ca         1 36Y      -0.097000
     11 N3          -3.6200     1.1640     0.0300 nd         1 36Y      -0.668000
     12 N1          -4.9560    -0.6020     0.0290 na         1 36Y      -0.298500
     13 H1          -5.7640     1.4030     0.0510 h5         1 36Y       0.058100
     14 H2          -3.4350    -2.1550     0.0030 h4         1 36Y       0.160000
     15 H3          -1.2000     2.1990     0.0170 ha         1 36Y       0.123500
     16 H4           1.2740     2.2140    -0.0050 ha         1 36Y       0.127000
     17 H5           1.3180    -2.1010    -0.0390 ha         1 36Y       0.127000
     18 H6          -1.1530    -2.1380    -0.0170 ha         1 36Y       0.123500
     19 H7          -5.8170    -1.1370     0.0320 hn         1 36Y       0.354000
@<TRIPOS>BOND
     1     1    11 2   
     2     1    12 1   
     3     1    13 1   
     4     2     3 2   
     5     2    12 1   
     6     2    14 1   
     7     3     4 1   
     8     3    11 1   
     9     4     5 ar  
    10     4    10 ar  
    11     5     6 ar  
    12     5    15 1   
    13     6     7 ar  
    14     6    16 1   
    15     7     8 ar  
    16     7     9 1   
    17     8    10 ar  
    18     8    17 1   
    19    10    18 1   
    20    12    19 1   
@<TRIPOS>SUBSTRUCTURE
     1 36Y         1 TEMP              0 ****  ****    0 ROOT
