@<TRIPOS>MOLECULE
36Y
   19    20     1     0     0
SMALL
abcg2


@<TRIPOS>ATOM
      1 C2          -4.8200     0.7670     0.0460 cc         1 36Y       0.393400
      2 C5          -3.6750    -1.0960     0.0050 cc         1 36Y      -0.209000
      3 C4          -2.8310    -0.0120     0.0170 cd         1 36Y       0.288500
      4 C6          -1.3710     0.0070     0.0040 ca         1 36Y      -0.085500
      5 C7          -0.6800     1.2200     0.0010 ca         1 36Y      -0.097000
      6 C8           0.7050     1.2590    -0.0130 ca         1 36Y      -0.087500
      7 C9           1.4180     0.0700    -0.0240 ca         1 36Y      -0.019900
      8 C10          0.7590    -1.1520    -0.0220 ca         1 36Y      -0.087500
      9 BR           3.3060     0.1100    -0.0430 br         1 36Y      -0.105100
     10 C11         -0.6260    -1.1740    -0.0080 ca         1 36Y      -0.097000
     11 N3          -3.5690     1.1410     0.0420 nd         1 36Y      -0.668000
     12 N1          -4.9310    -0.5760     0.0230 na         1 36Y      -0.298500
     13 H1          -5.6790     1.4190     0.0640 h5         1 36Y       0.058100
     14 H2          -3.4980    -2.1580    -0.0140 h4         1 36Y       0.160000
     15 H3          -1.2340     2.1490     0.0110 ha         1 36Y       0.123500
     16 H4           1.2130     2.2150    -0.0140 ha         1 36Y       0.127000
     17 H5           1.3080    -2.0830    -0.0300 ha         1 36Y       0.127000
     18 H6          -1.1230    -2.1360    -0.0040 ha         1 36Y       0.123500
     19 H7          -5.7900    -1.1030     0.0180 hn         1 36Y       0.354000
@<TRIPOS>BOND
     1     1    11 2   
     2     1    12 1   
     3     1    13 1   
     4     2     3 2   
     5     2    12 1   
     6     2    14 1   
     7     3     4 1   
     8     3    11 1   
     9     4     5 ar  
    10     4    10 ar  
    11     5     6 ar  
    12     5    15 1   
    13     6     7 ar  
    14     6    16 1   
    15     7     8 ar  
    16     7     9 1   
    17     8    10 ar  
    18     8    17 1   
    19    10    18 1   
    20    12    19 1   
@<TRIPOS>SUBSTRUCTURE
     1 36Y         1 TEMP              0 ****  ****    0 ROOT
