@<TRIPOS>MOLECULE
36Z
   32    33     1     0     0
SMALL
No Charge or Current Charge


@<TRIPOS>ATOM
      1 CAF         -1.8510    -2.4030    -1.4210 c3         1 36Z      -0.140400
      2 CAE         -2.5190    -1.3400    -0.5940 cc         1 36Z       0.208300
      3 OAA         -3.8640    -1.4720    -0.3550 os         1 36Z      -0.072700
      4 NAB         -4.3070    -0.3510     0.4180 nc         1 36Z      -0.366300
      5 CAC         -3.2250     0.3890     0.5760 cd         1 36Z       0.293300
      6 CAG         -3.3190     1.6230     1.4340 c3         1 36Z      -0.134400
      7 CAD         -2.0780    -0.1510    -0.0690 cd         1 36Z      -0.187000
      8 CAH         -0.6850     0.3610    -0.0330 ca         1 36Z       0.029000
      9 CAM          0.4180    -0.5190    -0.0680 ca         1 36Z      -0.099000
     10 CAI         -0.4300     1.7470     0.0290 ca         1 36Z      -0.146000
     11 CAJ          0.8810     2.2390     0.0570 ca         1 36Z       0.283000
     12 NAR          1.1020     3.5920     0.1070 nv         1 36Z      -1.079000
     13 CAK          1.9650     1.3530     0.0250 ca         1 36Z      -0.128000
     14 CAL          1.7480    -0.0420    -0.0380 ca         1 36Z      -0.099600
     15 CAN          2.9030    -1.0220    -0.0660 c          1 36Z       0.603700
     16 OAO          2.7440    -2.2360    -0.1250 o          1 36Z      -0.490000
     17 OAP          4.1390    -0.4260    -0.0220 os         1 36Z      -0.439100
     18 CAQ          5.3040    -1.2710    -0.0450 c3         1 36Z       0.153900
     19 H1          -2.5810    -2.9160    -2.0590 hc         1 36Z       0.066033
     20 H2          -1.0870    -1.9700    -2.0770 hc         1 36Z       0.066033
     21 H3          -1.3780    -3.1570    -0.7820 hc         1 36Z       0.066033
     22 H4          -3.4540     2.5200     0.8180 hc         1 36Z       0.057367
     23 H5          -4.1700     1.5670     2.1240 hc         1 36Z       0.057367
     24 H6          -2.4170     1.7520     2.0430 hc         1 36Z       0.057367
     25 H7           0.2530    -1.5910    -0.0800 ha         1 36Z       0.138000
     26 H8          -1.2500     2.4550     0.0160 ha         1 36Z       0.117000
     27 H9           0.3250     4.2410    -0.0010 hn         1 36Z       0.454500
     28 H10          2.0450     3.9620    -0.0050 hn         1 36Z       0.454500
     29 H11          2.9740     1.7540     0.0490 ha         1 36Z       0.130000
     30 H12          5.3350    -1.8710    -0.9640 h1         1 36Z       0.049033
     31 H13          6.2170    -0.6640    -0.0050 h1         1 36Z       0.049033
     32 H14          5.3110    -1.9530     0.8160 h1         1 36Z       0.049033
@<TRIPOS>BOND
     1     1     2 1   
     2     1    19 1   
     3     1    20 1   
     4     1    21 1   
     5     2     3 1   
     6     2     7 2   
     7     3     4 1   
     8     4     5 2   
     9     5     6 1   
    10     5     7 1   
    11     6    22 1   
    12     6    23 1   
    13     6    24 1   
    14     7     8 1   
    15     8     9 ar  
    16     8    10 ar  
    17     9    14 ar  
    18     9    25 1   
    19    10    11 ar  
    20    10    26 1   
    21    11    12 1   
    22    11    13 ar  
    23    12    27 1   
    24    12    28 1   
    25    13    14 ar  
    26    13    29 1   
    27    14    15 1   
    28    15    16 2   
    29    15    17 1   
    30    17    18 1   
    31    18    30 1   
    32    18    31 1   
    33    18    32 1   
@<TRIPOS>SUBSTRUCTURE
     1 36Z         1 TEMP              0 ****  ****    0 ROOT
