@<TRIPOS>MOLECULE
36Z
   32    33     1     0     0
SMALL
bcc


@<TRIPOS>ATOM
      1 CAF         -1.9540    -2.1580    -1.7070 c3         1 36Z      -0.140400
      2 CAE         -2.5240    -1.2370    -0.6980 cc         1 36Z       0.318000
      3 OAA         -3.8050    -1.4020    -0.3630 os         1 36Z      -0.117100
      4 NAB         -4.1670    -0.4720     0.5690 nc         1 36Z      -0.366300
      5 CAC         -3.1140     0.2570     0.7900 cd         1 36Z       0.358600
      6 CAG         -3.1470     1.3710     1.7750 c3         1 36Z      -0.134400
      7 CAD         -2.0110    -0.1900     0.0020 cd         1 36Z      -0.317600
      8 CAH         -0.6440     0.3380    -0.0250 ca         1 36Z       0.029000
      9 CAM          0.4430    -0.5260     0.0690 ca         1 36Z      -0.117000
     10 CAI         -0.4250     1.7060    -0.1470 ca         1 36Z      -0.164000
     11 CAJ          0.8700     2.2360    -0.1780 ca         1 36Z       0.144600
     12 NAR          1.0740     3.5920    -0.2440 nv         1 36Z      -0.830200
     13 CAK          1.9530     1.3540    -0.0970 ca         1 36Z      -0.146000
     14 CAL          1.7360    -0.0130     0.0250 ca         1 36Z      -0.099600
     15 CAN          2.8650    -0.9770     0.1250 c          1 36Z       0.652700
     16 OAO          2.7180    -2.1700     0.2480 o          1 36Z      -0.539000
     17 OAP          4.0490    -0.3920     0.0650 os         1 36Z      -0.415900
     18 CAQ          5.2040    -1.2260     0.1570 c3         1 36Z       0.130700
     19 H1          -2.6360    -2.2930    -2.5460 hc         1 36Z       0.066033
     20 H2          -1.0140    -1.7650    -2.0880 hc         1 36Z       0.066033
     21 H3          -1.7550    -3.1410    -1.2770 hc         1 36Z       0.066033
     22 H4          -3.1250     2.3390     1.2760 hc         1 36Z       0.057367
     23 H5          -4.0510     1.3250     2.3800 hc         1 36Z       0.057367
     24 H6          -2.2810     1.3250     2.4350 hc         1 36Z       0.057367
     25 H7           0.2850    -1.5880     0.1920 ha         1 36Z       0.156000
     26 H8          -1.2690     2.3800    -0.2360 ha         1 36Z       0.135000
     27 H9           0.3150     4.1420    -0.6130 hn         1 36Z       0.399300
     28 H10          1.9680     3.8920    -0.5970 hn         1 36Z       0.399300
     29 H11          2.9580     1.7540    -0.1290 ha         1 36Z       0.148000
     30 H12          5.2520    -1.9310    -0.6720 h1         1 36Z       0.049033
     31 H13          6.0580    -0.5570     0.1100 h1         1 36Z       0.049033
     32 H14          5.2250    -1.7740     1.0990 h1         1 36Z       0.049033
@<TRIPOS>BOND
     1     1     2 1   
     2     1    19 1   
     3     1    20 1   
     4     1    21 1   
     5     2     3 1   
     6     2     7 2   
     7     3     4 1   
     8     4     5 2   
     9     5     6 1   
    10     5     7 1   
    11     6    22 1   
    12     6    23 1   
    13     6    24 1   
    14     7     8 1   
    15     8     9 ar  
    16     8    10 ar  
    17     9    14 ar  
    18     9    25 1   
    19    10    11 ar  
    20    10    26 1   
    21    11    12 1   
    22    11    13 ar  
    23    12    27 1   
    24    12    28 1   
    25    13    14 ar  
    26    13    29 1   
    27    14    15 1   
    28    15    16 2   
    29    15    17 1   
    30    17    18 1   
    31    18    30 1   
    32    18    31 1   
    33    18    32 1   
@<TRIPOS>SUBSTRUCTURE
     1 36Z         1 TEMP              0 ****  ****    0 ROOT
