@<TRIPOS>MOLECULE
370
   52    56     1     0     0
SMALL
No Charge or Current Charge


@<TRIPOS>ATOM
      1 C           -4.4690     2.3500    -1.5860 c3         1 370      -0.123400
      2 N           -2.1170    -1.9290     0.0500 nc         1 370      -0.375000
      3 O           -1.8010     0.2250    -0.5370 os         1 370      -0.283000
      4 S            0.5630     2.1770    -0.4980 ss         1 370       0.122400
      5 C1          -5.0350     1.7030    -0.3510 cc         1 370       0.280300
      6 N1          -0.8040    -1.6040     0.3080 nc         1 370      -0.338000
      7 O1           1.9460    -1.2640     0.8710 os         1 370      -0.334100
      8 C2          -4.8610     0.3370    -0.0370 cc         1 370      -0.230300
      9 N2           3.5920    -4.5480    -1.2540 n7         1 370      -0.847400
     10 C3          -4.0890    -0.6710    -0.8640 c3         1 370      -0.008400
     11 N3          -6.0420     1.3910     1.4850 na         1 370       0.000800
     12 C4          -2.6500    -0.8220    -0.4410 cd         1 370       0.427300
     13 N4          -5.7410     2.3680     0.5390 nd         1 370      -0.521800
     14 C5          -0.6660    -0.3320    -0.0510 cd         1 370       0.508800
     15 C6           0.5240     0.4720     0.0310 cd         1 370      -0.166200
     16 C7           1.7580     0.0350     0.4800 cc         1 370       0.186900
     17 C8           2.9170    -2.0750     0.1790 c6         1 370       0.181300
     18 C9           3.0710    -3.4270     0.9100 c6         1 370      -0.130400
     19 C10          4.0390    -4.3580     0.1470 c6         1 370       0.150800
     20 C11          3.4740    -3.2720    -1.9990 c6         1 370       0.150800
     21 C12          2.4920    -2.3110    -1.2920 c6         1 370      -0.130400
     22 C13          2.7750     1.0650     0.5000 ca         1 370      -0.113800
     23 C14          4.0860     0.9890     1.0060 ca         1 370      -0.055000
     24 C15          4.9060     2.1330     0.9420 ca         1 370      -0.119000
     25 C16          4.4090     3.3360     0.3970 ca         1 370      -0.087000
     26 C17          3.0830     3.4060    -0.0740 ca         1 370      -0.087000
     27 C18          2.2800     2.2570    -0.0060 ca         1 370      -0.151000
     28 C19         -5.5060     0.1430     1.1470 cd         1 370      -0.110300
     29 C20         -5.6520    -1.1060     1.9770 c3         1 370      -0.038800
     30 H           -4.9040     1.9080    -2.4900 hc         1 370       0.049033
     31 HA          -4.6820     3.4260    -1.6040 hc         1 370       0.049033
     32 HB          -3.3820     2.2250    -1.6310 hc         1 370       0.049033
     33 H3          -4.5870    -1.6450    -0.8020 hc         1 370       0.076700
     34 H3A         -4.1200    -0.3990    -1.9250 hc         1 370       0.076700
     35 H8           3.8890    -1.5670     0.1850 h1         1 370       0.043700
     36 H9           3.4460    -3.2600     1.9280 hc         1 370       0.061950
     37 H9A          2.0900    -3.9120     1.0100 hc         1 370       0.061950
     38 H10          4.0930    -5.3330     0.6550 h1         1 370       0.053700
     39 H10A         5.0510    -3.9250     0.1560 h1         1 370       0.053700
     40 H11          4.4640    -2.7960    -2.0740 h1         1 370       0.053700
     41 H11A         3.1250    -3.4700    -3.0240 h1         1 370       0.053700
     42 H12          1.4760    -2.7270    -1.3270 hc         1 370       0.061950
     43 H12A         2.4630    -1.3580    -1.8360 hc         1 370       0.061950
     44 H14          4.4660     0.0750     1.4560 ha         1 370       0.123000
     45 H15          5.9240     2.0910     1.3230 ha         1 370       0.118000
     46 H16          5.0460     4.2170     0.3550 ha         1 370       0.116000
     47 H17          2.6880     4.3370    -0.4740 ha         1 370       0.125000
     48 H20         -6.2890    -1.8410     1.4710 hc         1 370       0.057367
     49 H20A        -4.6770    -1.5750     2.1550 hc         1 370       0.057367
     50 H20B        -6.1000    -0.8920     2.9550 hc         1 370       0.057367
     51 HN3         -6.5910     1.6050     2.3160 hn         1 370       0.372000
     52 HN2          2.6700    -5.0020    -1.2410 hn         1 370       0.409000
@<TRIPOS>BOND
     1     1     5 1   
     2     1    30 1   
     3     1    31 1   
     4     1    32 1   
     5     2     6 1   
     6     2    12 2   
     7     3    12 1   
     8     3    14 1   
     9     4    15 1   
    10     4    27 1   
    11     5     8 1   
    12     5    13 2   
    13     6    14 2   
    14     7    16 1   
    15     7    17 1   
    16     8    10 1   
    17     8    28 2   
    18     9    19 1   
    19     9    20 1   
    20     9    52 1   
    21    10    12 1   
    22    10    33 1   
    23    10    34 1   
    24    11    13 1   
    25    11    28 1   
    26    11    51 1   
    27    14    15 1   
    28    15    16 2   
    29    16    22 1   
    30    17    18 1   
    31    17    21 1   
    32    17    35 1   
    33    18    19 1   
    34    18    36 1   
    35    18    37 1   
    36    19    38 1   
    37    19    39 1   
    38    20    21 1   
    39    20    40 1   
    40    20    41 1   
    41    21    42 1   
    42    21    43 1   
    43    22    23 ar  
    44    22    27 ar  
    45    23    24 ar  
    46    23    44 1   
    47    24    25 ar  
    48    24    45 1   
    49    25    26 ar  
    50    25    46 1   
    51    26    27 ar  
    52    26    47 1   
    53    28    29 1   
    54    29    48 1   
    55    29    49 1   
    56    29    50 1   
@<TRIPOS>SUBSTRUCTURE
     1 370         1 TEMP              0 ****  ****    0 ROOT
