@<TRIPOS>MOLECULE
370
   52    56     1     0     0
SMALL
bcc


@<TRIPOS>ATOM
      1 C           -4.2160     2.7030    -1.4160 c3         1 370      -0.123400
      2 N           -2.2600    -1.9500    -0.1160 nc         1 370      -0.375000
      3 O           -1.7860     0.1150    -0.5860 os         1 370      -0.371800
      4 S            0.4200     2.0040    -0.2510 ss         1 370      -0.004500
      5 C1          -4.8090     1.8720    -0.3310 cc         1 370       0.345600
      6 N1          -0.9560    -1.7220     0.2400 nc         1 370      -0.338000
      7 O1           2.0020    -1.3610     0.9040 os         1 370      -0.310900
      8 C2          -4.7580     0.4690    -0.1950 cc         1 370      -0.295600
      9 N2           3.7820    -4.6520    -1.0910 n7         1 370      -0.792200
     10 C3          -4.0840    -0.5290    -1.0830 c3         1 370      -0.008400
     11 N3          -5.8400     1.3900     1.4430 na         1 370       0.000400
     12 C4          -2.7210    -0.8510    -0.5970 cd         1 370       0.471700
     13 N4          -5.4760     2.4140     0.6720 nd         1 370      -0.521800
     14 C5          -0.7090    -0.4910    -0.0540 cd         1 370       0.553200
     15 C6           0.4810     0.2970     0.1000 cd         1 370      -0.166200
     16 C7           1.7100    -0.1100     0.5300 cc         1 370       0.186900
     17 C8           2.8640    -2.1160     0.0230 c6         1 370       0.158100
     18 C9           3.6490    -3.0990     0.8680 c6         1 370      -0.130400
     19 C10          4.5190    -3.9770    -0.0370 c6         1 370       0.150800
     20 C11          2.9980    -3.7170    -1.8790 c6         1 370       0.150800
     21 C12          2.0620    -2.8380    -1.0450 c6         1 370      -0.130400
     22 C13          2.6570     0.9710     0.5910 ca         1 370      -0.113800
     23 C14          3.9890     0.9480     1.0230 ca         1 370      -0.073000
     24 C15          4.7160     2.1190     1.0160 ca         1 370      -0.137000
     25 C16          4.1340     3.3210     0.5900 ca         1 370      -0.105000
     26 C17          2.8180     3.3680     0.1740 ca         1 370      -0.105000
     27 C18          2.0860     2.1840     0.1830 ca         1 370      -0.024100
     28 C19         -5.4370     0.1970     0.9770 cd         1 370      -0.059600
     29 C20         -5.7210    -1.0960     1.6530 c3         1 370      -0.038800
     30 H           -4.5620     2.3820    -2.4000 hc         1 370       0.049033
     31 HA          -4.4820     3.7510    -1.2920 hc         1 370       0.049033
     32 HB          -3.1270     2.6320    -1.4230 hc         1 370       0.049033
     33 H3          -4.6460    -1.4620    -1.1260 hc         1 370       0.076700
     34 H3A         -4.0210    -0.1530    -2.1080 hc         1 370       0.076700
     35 H8           3.5640    -1.4280    -0.4690 h1         1 370       0.043700
     36 H9           4.2780    -2.5710     1.5910 hc         1 370       0.061950
     37 H9A          2.9560    -3.7300     1.4340 hc         1 370       0.061950
     38 H10          5.0400    -4.7220     0.5650 h1         1 370       0.053700
     39 H10A         5.2910    -3.3570    -0.5040 h1         1 370       0.053700
     40 H11          3.6910    -3.0790    -2.4380 h1         1 370       0.053700
     41 H11A         2.4210    -4.2720    -2.6210 h1         1 370       0.053700
     42 H12          1.2940    -3.4540    -0.5710 hc         1 370       0.061950
     43 H12A         1.5490    -2.1220    -1.6930 hc         1 370       0.061950
     44 H14          4.4410     0.0260     1.3660 ha         1 370       0.141000
     45 H15          5.7450     2.1140     1.3480 ha         1 370       0.136000
     46 H16          4.7220     4.2290     0.5970 ha         1 370       0.134000
     47 H17          2.3680     4.3000    -0.1420 ha         1 370       0.143000
     48 H20         -6.4450    -1.6840     1.0870 hc         1 370       0.057367
     49 H20A        -4.8140    -1.6930     1.7420 hc         1 370       0.057367
     50 H20B        -6.1230    -0.9470     2.6550 hc         1 370       0.057367
     51 HN3         -6.3730     1.5610     2.2810 hn         1 370       0.321700
     52 HN2          3.1600    -5.3350    -0.6720 hn         1 370       0.353800
@<TRIPOS>BOND
     1     1     5 1   
     2     1    30 1   
     3     1    31 1   
     4     1    32 1   
     5     2     6 1   
     6     2    12 2   
     7     3    12 1   
     8     3    14 1   
     9     4    15 1   
    10     4    27 1   
    11     5     8 1   
    12     5    13 2   
    13     6    14 2   
    14     7    16 1   
    15     7    17 1   
    16     8    10 1   
    17     8    28 2   
    18     9    19 1   
    19     9    20 1   
    20     9    52 1   
    21    10    12 1   
    22    10    33 1   
    23    10    34 1   
    24    11    13 1   
    25    11    28 1   
    26    11    51 1   
    27    14    15 1   
    28    15    16 2   
    29    16    22 1   
    30    17    18 1   
    31    17    21 1   
    32    17    35 1   
    33    18    19 1   
    34    18    36 1   
    35    18    37 1   
    36    19    38 1   
    37    19    39 1   
    38    20    21 1   
    39    20    40 1   
    40    20    41 1   
    41    21    42 1   
    42    21    43 1   
    43    22    23 ar  
    44    22    27 ar  
    45    23    24 ar  
    46    23    44 1   
    47    24    25 ar  
    48    24    45 1   
    49    25    26 ar  
    50    25    46 1   
    51    26    27 ar  
    52    26    47 1   
    53    28    29 1   
    54    29    48 1   
    55    29    49 1   
    56    29    50 1   
@<TRIPOS>SUBSTRUCTURE
     1 370         1 TEMP              0 ****  ****    0 ROOT
