@<TRIPOS>MOLECULE
371
   45    48     1     0     0
SMALL
abcg2


@<TRIPOS>ATOM
      1 O1           0.4770    -4.4560    -1.2110 os         1 371      -0.201200
      2 C1           1.6510    -5.1000    -1.3610 cc         1 371       0.088900
      3 C2           1.7590    -6.4360    -1.1540 cd         1 371      -0.048100
      4 C3           0.6240    -7.2200    -0.6880 c          1 371       0.598900
      5 C4          -1.7990    -7.0800    -0.1070 ca         1 371      -0.027000
      6 C5          -2.9630    -6.3570     0.0250 ca         1 371      -0.098300
      7 C6          -2.9370    -4.9800    -0.2460 ca         1 371      -0.084000
      8 C7          -1.7900    -4.3330    -0.6590 ca         1 371       0.254000
      9 C8          -0.6210    -5.1020    -0.8000 ca         1 371       0.156100
     10 C9          -0.6130    -6.4590    -0.5170 ca         1 371      -0.211600
     11 O2           0.7060    -8.4200    -0.4740 o          1 371      -0.507100
     12 C10          2.7280    -4.2170    -1.8150 ca         1 371      -0.068800
     13 C11          2.4950    -3.2790    -2.8160 ca         1 371      -0.045000
     14 C12          3.5250    -2.4570    -3.2460 ca         1 371      -0.163000
     15 C13          4.7870    -2.5480    -2.6800 ca         1 371       0.064100
     16 C14          5.0260    -3.4750    -1.6560 ca         1 371       0.116100
     17 C15          3.9970    -4.2990    -1.2320 ca         1 371      -0.110000
     18 C16         -4.2470    -7.0000     0.4590 c3         1 371      -0.043800
     19 O3           2.8830    -7.1510    -1.3570 oh         1 371      -0.500100
     20 O4           6.2300    -3.5800    -1.0610 oh         1 371      -0.532100
     21 O5           5.8350    -1.7830    -3.0420 oh         1 371      -0.555100
     22 C17         -2.6930    -0.7680    -1.2310 c5         1 371      -0.083400
     23 C18         -2.9440    -2.2580    -1.4540 c5         1 371       0.209800
     24 N1          -1.7510    -2.9670    -0.9780 nh         1 371      -0.740300
     25 S1          -0.7100    -1.9500    -0.1130 s6         1 371       1.187100
     26 C19         -1.9380    -0.6690     0.0840 c5         1 371      -0.337400
     27 O7           0.3360    -1.4420    -0.9840 o          1 371      -0.514000
     28 O6          -0.3230    -2.6130     1.1220 o          1 371      -0.514000
     29 H4          -1.7870    -8.1420     0.1020 ha         1 371       0.141000
     30 H6          -3.8530    -4.4150    -0.1260 ha         1 371       0.117000
     31 H11          1.5200    -3.1890    -3.2730 ha         1 371       0.134000
     32 H12          3.3440    -1.7360    -4.0340 ha         1 371       0.118000
     33 H15          4.1880    -4.9770    -0.4100 ha         1 371       0.143000
     34 H161        -4.1080    -8.0550     0.6860 hc         1 371       0.045700
     35 H162        -4.6480    -6.5140     1.3500 hc         1 371       0.045700
     36 H163        -5.0070    -6.9220    -0.3200 hc         1 371       0.045700
     37 HO3          3.5120    -6.6600    -1.9000 ho         1 371       0.467000
     38 HO4          6.8450    -2.9300    -1.4210 ho         1 371       0.483000
     39 HO5          5.5850    -1.1490    -3.7240 ho         1 371       0.479000
     40 H172        -3.6350    -0.2270    -1.1810 hc         1 371       0.076200
     41 H181        -3.8270    -2.5580    -0.8880 h1         1 371       0.058200
     42 H182        -3.1150    -2.4880    -2.5050 h1         1 371       0.058200
     43 H191        -1.4380     0.2830     0.2550 h1         1 371       0.110700
     44 H192        -2.5640    -0.9230     0.9400 h1         1 371       0.110700
     45 H171        -2.1030    -0.3400    -2.0410 hc         1 371       0.076200
@<TRIPOS>BOND
     1     1     2 1   
     2     1     9 1   
     3     2     3 2   
     4     2    12 1   
     5     3     4 1   
     6     3    19 1   
     7     4    10 1   
     8     4    11 2   
     9     5     6 ar  
    10     5    10 ar  
    11     5    29 1   
    12     6     7 ar  
    13     6    18 1   
    14     7     8 ar  
    15     7    30 1   
    16     8     9 ar  
    17     8    24 1   
    18     9    10 ar  
    19    12    13 ar  
    20    12    17 ar  
    21    13    14 ar  
    22    13    31 1   
    23    14    15 ar  
    24    14    32 1   
    25    15    16 ar  
    26    15    21 1   
    27    16    17 ar  
    28    16    20 1   
    29    17    33 1   
    30    18    34 1   
    31    18    35 1   
    32    18    36 1   
    33    19    37 1   
    34    20    38 1   
    35    21    39 1   
    36    22    23 1   
    37    22    26 1   
    38    22    40 1   
    39    22    45 1   
    40    23    24 1   
    41    23    41 1   
    42    23    42 1   
    43    24    25 1   
    44    25    26 1   
    45    25    27 2   
    46    25    28 2   
    47    26    43 1   
    48    26    44 1   
@<TRIPOS>SUBSTRUCTURE
     1 371         1 TEMP              0 ****  ****    0 ROOT
