@<TRIPOS>MOLECULE
371
   45    48     1     0     0
SMALL
No Charge or Current Charge


@<TRIPOS>ATOM
      1 O1           0.1250    -4.4070    -1.6380 os         1 371      -0.201200
      2 C1           1.3730    -4.9940    -1.7350 cc         1 371       0.088900
      3 C2           1.4880    -6.3750    -1.8170 cd         1 371      -0.048100
      4 C3           0.3620    -7.2500    -1.3970 c          1 371       0.598900
      5 C4          -1.8000    -7.2070    -0.1010 ca         1 371      -0.027000
      6 C5          -2.8670    -6.4980     0.4760 ca         1 371      -0.098300
      7 C6          -2.9170    -5.0990     0.3460 ca         1 371      -0.084000
      8 C7          -1.9130    -4.4000    -0.3480 ca         1 371       0.254000
      9 C8          -0.8240    -5.1180    -0.9110 ca         1 371       0.156100
     10 C9          -0.7810    -6.5210    -0.7940 ca         1 371      -0.211600
     11 O2           0.3720    -8.4740    -1.4910 o          1 371      -0.507100
     12 C10          2.5000    -4.1210    -2.0640 ca         1 371      -0.068800
     13 C11          2.3460    -3.1050    -3.0300 ca         1 371      -0.045000
     14 C12          3.4170    -2.2470    -3.3440 ca         1 371      -0.163000
     15 C13          4.6490    -2.3950    -2.6850 ca         1 371       0.064100
     16 C14          4.8040    -3.3990    -1.7080 ca         1 371       0.116100
     17 C15          3.7360    -4.2550    -1.3970 ca         1 371      -0.110000
     18 C16         -3.9670    -7.2390     1.2220 c3         1 371      -0.043800
     19 O3           2.6210    -7.0220    -2.2310 oh         1 371      -0.500100
     20 O4           6.0000    -3.5310    -1.0640 oh         1 371      -0.532100
     21 O5           5.6950    -1.5620    -2.9850 oh         1 371      -0.555100
     22 C17         -1.3920    -0.9590    -1.5410 c5         1 371      -0.083400
     23 C18         -2.1710    -2.2880    -1.7550 c5         1 371       0.209800
     24 N1          -2.0100    -2.9990    -0.4650 nh         1 371      -0.740300
     25 S1          -1.6770    -2.0090     0.9010 s6         1 371       1.187100
     26 C19         -1.8710    -0.4980    -0.1330 c5         1 371      -0.337400
     27 O7          -0.2800    -2.2410     1.2830 o          1 371      -0.514000
     28 O6          -2.7770    -2.1650     1.8570 o          1 371      -0.514000
     29 H4          -1.7640    -8.2920    -0.0060 ha         1 371       0.141000
     30 H6          -3.7490    -4.5470     0.7750 ha         1 371       0.117000
     31 H11          1.3950    -2.9820    -3.5440 ha         1 371       0.134000
     32 H12          3.2800    -1.4730    -4.0950 ha         1 371       0.118000
     33 H15          3.8650    -5.0110    -0.6250 ha         1 371       0.143000
     34 H161        -3.5780    -8.1330     1.7230 hc         1 371       0.045700
     35 H162        -4.4250    -6.6060     1.9920 hc         1 371       0.045700
     36 H163        -4.7590    -7.5570     0.5340 hc         1 371       0.045700
     37 HO3          3.2650    -6.3430    -2.5310 ho         1 371       0.467000
     38 HO4          6.5870    -2.8340    -1.4370 ho         1 371       0.483000
     39 HO5          5.4070    -0.9290    -3.6810 ho         1 371       0.479000
     40 H172        -1.6140    -0.2240    -2.3240 hc         1 371       0.076200
     41 H181        -3.2330    -2.0980    -1.9630 h1         1 371       0.058200
     42 H182        -1.7610    -2.8570    -2.6010 h1         1 371       0.058200
     43 H191        -1.2720     0.3000     0.3180 h1         1 371       0.110700
     44 H192        -2.9360    -0.2420    -0.1060 h1         1 371       0.110700
     45 H171        -0.3090    -1.1340    -1.5630 hc         1 371       0.076200
@<TRIPOS>BOND
     1     1     2 1   
     2     1     9 1   
     3     2     3 2   
     4     2    12 1   
     5     3     4 1   
     6     3    19 1   
     7     4    10 1   
     8     4    11 2   
     9     5     6 ar  
    10     5    10 ar  
    11     5    29 1   
    12     6     7 ar  
    13     6    18 1   
    14     7     8 ar  
    15     7    30 1   
    16     8     9 ar  
    17     8    24 1   
    18     9    10 ar  
    19    12    13 ar  
    20    12    17 ar  
    21    13    14 ar  
    22    13    31 1   
    23    14    15 ar  
    24    14    32 1   
    25    15    16 ar  
    26    15    21 1   
    27    16    17 ar  
    28    16    20 1   
    29    17    33 1   
    30    18    34 1   
    31    18    35 1   
    32    18    36 1   
    33    19    37 1   
    34    20    38 1   
    35    21    39 1   
    36    22    23 1   
    37    22    26 1   
    38    22    40 1   
    39    22    45 1   
    40    23    24 1   
    41    23    41 1   
    42    23    42 1   
    43    24    25 1   
    44    25    26 1   
    45    25    27 2   
    46    25    28 2   
    47    26    43 1   
    48    26    44 1   
@<TRIPOS>SUBSTRUCTURE
     1 371         1 TEMP              0 ****  ****    0 ROOT
