@<TRIPOS>MOLECULE
372
   31    32     1     0     0
SMALL
No Charge or Current Charge


@<TRIPOS>ATOM
      1 N14         -4.0330    -3.1430     0.4880 n1         1 372      -0.444000
      2 C13         -3.0640    -2.5040     0.5960 c1         1 372       0.296900
      3 C12         -1.8240    -1.7280     0.7340 c3         1 372       0.006700
      4 C7          -1.6060    -0.6850    -0.3980 c5         1 372      -0.095400
      5 C8          -2.6950     0.4400    -0.3710 c          1 372       0.563000
      6 O11         -3.8780     0.3840    -0.6870 o          1 372      -0.511000
      7 N9          -1.9820     1.6160    -0.0620 n          1 372      -0.213400
      8 C10         -2.6120     2.9490    -0.0850 c3         1 372       0.093300
      9 C2          -0.3110     0.0940    -0.2240 ca         1 372      -0.124300
     10 C1           1.0050    -0.3920    -0.1710 ca         1 372      -0.077000
     11 C3          -0.5810     1.4330    -0.0450 ca         1 372      -0.052000
     12 C4           0.4270     2.3460     0.2910 ca         1 372      -0.111000
     13 C5           1.7550     1.8790     0.3400 ca         1 372      -0.136000
     14 C6           2.0590     0.5170     0.0980 ca         1 372      -0.044000
     15 N15          3.4260     0.1290     0.1750 ns         1 372      -0.146000
     16 C16          4.0700    -1.0790    -0.0610 c          1 372       0.609100
     17 O17          3.5110    -2.1080    -0.4220 o          1 372      -0.586100
     18 C18          5.5790    -1.0330     0.1630 c3         1 372      -0.181100
     19 H1          -1.8350    -1.2310     1.7110 hc         1 372       0.079700
     20 H2          -0.9890    -2.4370     0.7570 hc         1 372       0.079700
     21 H3          -1.6770    -1.2130    -1.3560 hc         1 372       0.104700
     22 H4          -2.4190     3.4300    -1.0520 h1         1 372       0.050033
     23 H5          -3.6960     2.8640     0.0660 h1         1 372       0.050033
     24 H6          -2.1950     3.5700     0.7170 h1         1 372       0.050033
     25 H7           1.1830    -1.4530    -0.3190 ha         1 372       0.155000
     26 H8           0.1980     3.3890     0.4970 ha         1 372       0.126000
     27 H9           2.5540     2.5790     0.5750 ha         1 372       0.112000
     28 H10          4.0470     0.8780     0.4550 hn         1 372       0.150000
     29 H11          5.7780    -0.6770     1.1810 hc         1 372       0.064700
     30 H12          6.0650    -1.9950    -0.0310 hc         1 372       0.064700
     31 H13          6.0070    -0.2320    -0.4510 hc         1 372       0.064700
@<TRIPOS>BOND
     1     1     2 3   
     2     2     3 1   
     3     3     4 1   
     4     3    19 1   
     5     3    20 1   
     6     4     5 1   
     7     4     9 1   
     8     4    21 1   
     9     5     6 2   
    10     5     7 1   
    11     7     8 1   
    12     7    11 1   
    13     8    22 1   
    14     8    23 1   
    15     8    24 1   
    16     9    10 ar  
    17     9    11 ar  
    18    10    14 ar  
    19    10    25 1   
    20    11    12 ar  
    21    12    13 ar  
    22    12    26 1   
    23    13    14 ar  
    24    13    27 1   
    25    14    15 1   
    26    15    16 1   
    27    15    28 1   
    28    16    17 2   
    29    16    18 1   
    30    18    29 1   
    31    18    30 1   
    32    18    31 1   
@<TRIPOS>SUBSTRUCTURE
     1 372         1 TEMP              0 ****  ****    0 ROOT
