@<TRIPOS>MOLECULE
372
   31    32     1     0     0
SMALL
bcc


@<TRIPOS>ATOM
      1 N14         -4.0070    -3.1160     0.1400 n1         1 372      -0.354800
      2 C13         -3.0480    -2.5090     0.3270 c1         1 372       0.207700
      3 C12         -1.8200    -1.7750     0.5940 c3         1 372       0.006700
      4 C7          -1.5620    -0.6490    -0.4120 c5         1 372      -0.095400
      5 C8          -2.6070     0.4600    -0.3030 c          1 372       0.705500
      6 O11         -3.8080     0.3180    -0.3900 o          1 372      -0.586500
      7 N9          -1.9500     1.6290    -0.0740 n          1 372      -0.373000
      8 C10         -2.5780     2.9160     0.0870 c3         1 372       0.093300
      9 C2          -0.2770     0.0810    -0.1680 ca         1 372      -0.124300
     10 C1           1.0180    -0.3860    -0.1260 ca         1 372      -0.095000
     11 C3          -0.5740     1.4250     0.0130 ca         1 372       0.040600
     12 C4           0.4260     2.3480     0.2420 ca         1 372      -0.129000
     13 C5           1.7350     1.8830     0.2870 ca         1 372      -0.154000
     14 C6           2.0490     0.5340     0.1100 ca         1 372       0.048600
     15 N15          3.4050     0.1920     0.1790 ns         1 372      -0.472100
     16 C16          3.9990    -1.0180     0.0300 c          1 372       0.676100
     17 O17          3.3910    -2.0520    -0.1920 o          1 372      -0.586100
     18 C18          5.5020    -0.9940     0.1560 c3         1 372      -0.181100
     19 H1          -1.8620    -1.3850     1.6130 hc         1 372       0.079700
     20 H2          -0.9980    -2.4920     0.5590 hc         1 372       0.079700
     21 H3          -1.5940    -1.0580    -1.4270 hc         1 372       0.104700
     22 H4          -2.2520     3.6050    -0.6920 h1         1 372       0.050033
     23 H5          -3.6560     2.7990     0.0220 h1         1 372       0.050033
     24 H6          -2.3290     3.3430     1.0580 h1         1 372       0.050033
     25 H7           1.2240    -1.4340    -0.2740 ha         1 372       0.173000
     26 H8           0.2200     3.4010     0.3830 ha         1 372       0.144000
     27 H9           2.5320     2.5950     0.4650 ha         1 372       0.130000
     28 H10          4.0240     0.9680     0.3570 hn         1 372       0.316500
     29 H11          5.9110    -0.0150     0.3980 hc         1 372       0.064700
     30 H12          5.8090    -1.6980     0.9280 hc         1 372       0.064700
     31 H13          5.9450    -1.3270    -0.7830 hc         1 372       0.064700
@<TRIPOS>BOND
     1     1     2 3   
     2     2     3 1   
     3     3     4 1   
     4     3    19 1   
     5     3    20 1   
     6     4     5 1   
     7     4     9 1   
     8     4    21 1   
     9     5     6 2   
    10     5     7 1   
    11     7     8 1   
    12     7    11 1   
    13     8    22 1   
    14     8    23 1   
    15     8    24 1   
    16     9    10 ar  
    17     9    11 ar  
    18    10    14 ar  
    19    10    25 1   
    20    11    12 ar  
    21    12    13 ar  
    22    12    26 1   
    23    13    14 ar  
    24    13    27 1   
    25    14    15 1   
    26    15    16 1   
    27    15    28 1   
    28    16    17 2   
    29    16    18 1   
    30    18    29 1   
    31    18    30 1   
    32    18    31 1   
@<TRIPOS>SUBSTRUCTURE
     1 372         1 TEMP              0 ****  ****    0 ROOT
