@<TRIPOS>MOLECULE
373
   55    59     1     0     0
SMALL
bcc


@<TRIPOS>ATOM
      1 C1          -2.5680   -10.2020     4.1690 ca         1 373      -0.130800
      2 C2          -1.7700   -11.3550     4.2100 ca         1 373      -0.069000
      3 C3          -2.3480   -12.6040     4.2490 ca         1 373      -0.163000
      4 C4          -3.7420   -12.7230     4.2520 ca         1 373      -0.074000
      5 C5          -4.5500   -11.6060     4.2160 ca         1 373      -0.183000
      6 C6          -3.9620   -10.3390     4.1750 ca         1 373       0.100600
      7 N11         -4.7240    -9.2020     4.1400 ns         1 373      -0.439100
      8 C12         -4.2680    -7.9130     4.0960 c          1 373       0.715700
      9 C13         -2.8060    -7.7690     4.0760 cc         1 373      -0.114200
     10 C14         -2.0280    -8.8840     4.1250 cd         1 373      -0.050200
     11 C16         -2.2290    -6.4360     3.9950 cc         1 373      -0.031100
     12 N17         -0.9210    -6.2710     3.5960 na         1 373      -0.178400
     13 C18         -0.5930    -4.9490     3.6200 ca         1 373      -0.035200
     14 C19         -1.7260    -4.2380     4.0720 ca         1 373      -0.115800
     15 C20         -2.7520    -5.2010     4.2980 cd         1 373      -0.123200
     16 C24          0.5890    -4.3010     3.2720 ca         1 373      -0.157000
     17 C25          0.6150    -2.9240     3.3890 ca         1 373      -0.100000
     18 C26         -0.4930    -2.1870     3.8470 ca         1 373      -0.128300
     19 C27         -1.6610    -2.8450     4.1880 ca         1 373      -0.043000
     20 C31         -0.3990    -0.6860     3.9690 c3         1 373       0.221100
     21 N32         -1.5520    -0.0070     3.4140 n3         1 373      -0.718600
     22 C35         -1.6310    -0.1740     1.9740 c6         1 373       0.167800
     23 C36         -2.9000     0.4460     1.4130 c6         1 373      -0.071900
     24 C37         -2.9980     1.9260     1.7690 c6         1 373      -0.104700
     25 C38         -2.8340     2.0810     3.2780 c6         1 373      -0.071900
     26 C39         -1.5680     1.3990     3.7750 c6         1 373       0.167800
     27 C48         -4.3000     2.5660     1.2870 c3         1 373       0.146800
     28 N50         -4.5460     2.5430    -0.1470 n8         1 373      -0.879800
     29 O1          -5.0600    -6.9820     4.0710 o          1 373      -0.616500
     30 H2          -0.6920   -11.2470     4.2070 ha         1 373       0.135000
     31 H3          -1.7280   -13.4890     4.2780 ha         1 373       0.139000
     32 H4          -4.1970   -13.7050     4.2820 ha         1 373       0.136000
     33 H5          -5.6280   -11.7030     4.2190 ha         1 373       0.140000
     34 HN11        -5.7310    -9.3080     4.1470 hn         1 373       0.330500
     35 H14         -0.9480    -8.7990     4.1440 ha         1 373       0.131000
     36 HN17        -0.3320    -6.9950     3.2220 hn         1 373       0.292700
     37 H20         -3.7460    -5.0000     4.6590 ha         1 373       0.176000
     38 H24          1.4510    -4.8470     2.9120 ha         1 373       0.130000
     39 H25          1.5160    -2.3910     3.1100 ha         1 373       0.124000
     40 H27         -2.5230    -2.2810     4.5230 ha         1 373       0.150000
     41 H311        -0.3280    -0.4120     5.0270 h1         1 373       0.033700
     42 H312         0.5420    -0.3430     3.5040 h1         1 373       0.033700
     43 H351        -1.6100    -1.2400     1.7390 h1         1 373       0.031700
     44 H352        -0.7530     0.2780     1.4750 h1         1 373       0.031700
     45 H361        -2.9090     0.3040     0.3290 hc         1 373       0.046700
     46 H362        -3.7700    -0.0850     1.8150 hc         1 373       0.046700
     47 H37         -2.1610     2.4470     1.2820 hc         1 373       0.040700
     48 H381        -3.7010     1.6430     3.7860 hc         1 373       0.046700
     49 H382        -2.8030     3.1380     3.5540 hc         1 373       0.046700
     50 H391        -0.6880     1.9300     3.3680 h1         1 373       0.031700
     51 H392        -1.5050     1.4800     4.8640 h1         1 373       0.031700
     52 H481        -4.3220     3.6100     1.6180 h1         1 373       0.052200
     53 H482        -5.1420     2.0740     1.7840 h1         1 373       0.052200
     54 H501        -4.6150     1.5870    -0.4700 hn         1 373       0.334800
     55 H502        -3.7500     2.9390    -0.6320 hn         1 373       0.334800
@<TRIPOS>BOND
     1     1     2 ar  
     2     1     6 ar  
     3     1    10 1   
     4     2     3 ar  
     5     2    30 1   
     6     3     4 ar  
     7     3    31 1   
     8     4     5 ar  
     9     4    32 1   
    10     5     6 ar  
    11     5    33 1   
    12     6     7 1   
    13     7     8 1   
    14     7    34 1   
    15     8     9 1   
    16     8    29 2   
    17     9    10 2   
    18     9    11 1   
    19    10    35 1   
    20    11    12 1   
    21    11    15 2   
    22    12    13 1   
    23    12    36 1   
    24    13    14 ar  
    25    13    16 ar  
    26    14    15 1   
    27    14    19 ar  
    28    15    37 1   
    29    16    17 ar  
    30    16    38 1   
    31    17    18 ar  
    32    17    39 1   
    33    18    19 ar  
    34    18    20 1   
    35    19    40 1   
    36    20    21 1   
    37    20    41 1   
    38    20    42 1   
    39    21    22 1   
    40    21    26 1   
    41    22    23 1   
    42    22    43 1   
    43    22    44 1   
    44    23    24 1   
    45    23    45 1   
    46    23    46 1   
    47    24    25 1   
    48    24    27 1   
    49    24    47 1   
    50    25    26 1   
    51    25    48 1   
    52    25    49 1   
    53    26    50 1   
    54    26    51 1   
    55    27    28 1   
    56    27    52 1   
    57    27    53 1   
    58    28    54 1   
    59    28    55 1   
@<TRIPOS>SUBSTRUCTURE
     1 373         1 TEMP              0 ****  ****    0 ROOT
