@<TRIPOS>MOLECULE
373
   55    59     1     0     0
SMALL
No Charge or Current Charge


@<TRIPOS>ATOM
      1 C1          -2.6290   -10.3300     3.9160 ca         1 373      -0.130800
      2 C2          -1.9150   -11.4390     3.4270 ca         1 373      -0.051000
      3 C3          -2.4690   -12.7290     3.5250 ca         1 373      -0.145000
      4 C4          -3.7350   -12.9110     4.1110 ca         1 373      -0.056000
      5 C5          -4.4470   -11.8020     4.5990 ca         1 373      -0.165000
      6 C6          -3.8890   -10.5170     4.4980 ca         1 373       0.100600
      7 N11         -4.5700    -9.3890     4.9740 ns         1 373      -0.372100
      8 C12         -4.1450    -8.0810     4.9410 c          1 373       0.573200
      9 C13         -2.7920    -7.8710     4.3160 cc         1 373      -0.114200
     10 C14         -2.0860    -8.9700     3.8330 cd         1 373      -0.100200
     11 C16         -2.1810    -6.5570     4.1940 cc         1 373      -0.031100
     12 N17         -0.9200    -6.2780     3.6230 na         1 373      -0.228700
     13 C18         -0.6710    -4.9150     3.6820 ca         1 373      -0.035200
     14 C19         -1.7290    -4.2850     4.2740 ca         1 373      -0.115800
     15 C20         -2.6780    -5.3220     4.5950 cd         1 373      -0.173200
     16 C24          0.4460    -4.2010     3.2350 ca         1 373      -0.139000
     17 C25          0.4510    -2.8000     3.4150 ca         1 373      -0.082000
     18 C26         -0.6490    -2.1440     4.0310 ca         1 373      -0.128300
     19 C27         -1.7620    -2.8980     4.4700 ca         1 373      -0.025000
     20 C31         -0.6360    -0.6310     4.2220 c3         1 373       0.221100
     21 N32         -1.7050     0.0660     3.4700 n3         1 373      -0.718600
     22 C35         -1.5930    -0.1220     1.9950 c6         1 373       0.167800
     23 C36         -2.7790     0.5300     1.2400 c6         1 373      -0.071900
     24 C37         -2.9100     2.0410     1.5830 c6         1 373      -0.104700
     25 C38         -2.9800     2.2040     3.1250 c6         1 373      -0.071900
     26 C39         -1.7860     1.5090     3.8230 c6         1 373       0.167800
     27 C48         -4.1310     2.7170     0.8930 c3         1 373       0.146800
     28 N50         -4.0550     2.7030    -0.5820 n8         1 373      -0.990200
     29 O1          -4.8620    -7.2040     5.4010 o          1 373      -0.541000
     30 H2          -0.9350   -11.3060     2.9720 ha         1 373       0.117000
     31 H3          -1.9170   -13.5860     3.1470 ha         1 373       0.121000
     32 H4          -4.1620   -13.9100     4.1860 ha         1 373       0.118000
     33 H5          -5.4260   -11.9430     5.0520 ha         1 373       0.122000
     34 HN11        -5.4780    -9.5430     5.3910 hn         1 373       0.330500
     35 H14         -1.1100    -8.8420     3.3790 ha         1 373       0.181000
     36 HN17        -0.2850    -6.9600     3.2280 hn         1 373       0.343000
     37 H20         -3.6330    -5.1430     5.0780 ha         1 373       0.226000
     38 H24          1.2850    -4.7070     2.7630 ha         1 373       0.112000
     39 H25          1.3070    -2.2220     3.0750 ha         1 373       0.106000
     40 H27         -2.6170    -2.4170     4.9400 ha         1 373       0.132000
     41 H311        -0.7490    -0.4290     5.2960 h1         1 373       0.033700
     42 H312         0.3470    -0.2360     3.9280 h1         1 373       0.033700
     43 H351        -1.5720    -1.1920     1.7420 h1         1 373       0.031700
     44 H352        -0.6520     0.3150     1.6280 h1         1 373       0.031700
     45 H361        -2.6350     0.3890     0.1610 hc         1 373       0.046700
     46 H362        -3.7080     0.0040     1.5030 hc         1 373       0.046700
     47 H37         -2.0120     2.5630     1.2230 hc         1 373       0.040700
     48 H381        -3.9200     1.7800     3.5050 hc         1 373       0.046700
     49 H382        -2.9890     3.2700     3.3920 hc         1 373       0.046700
     50 H391        -0.8550     2.0230     3.5380 h1         1 373       0.031700
     51 H392        -1.8990     1.6290     4.9110 h1         1 373       0.031700
     52 H481        -4.1940     3.7620     1.2280 h1         1 373       0.052200
     53 H482        -5.0520     2.2050     1.2080 h1         1 373       0.052200
     54 H501        -3.9580     1.7320    -0.8970 hn         1 373       0.390000
     55 H502        -3.1730     3.1400    -0.8720 hn         1 373       0.390000
@<TRIPOS>BOND
     1     1     2 ar  
     2     1     6 ar  
     3     1    10 1   
     4     2     3 ar  
     5     2    30 1   
     6     3     4 ar  
     7     3    31 1   
     8     4     5 ar  
     9     4    32 1   
    10     5     6 ar  
    11     5    33 1   
    12     6     7 1   
    13     7     8 1   
    14     7    34 1   
    15     8     9 1   
    16     8    29 2   
    17     9    10 2   
    18     9    11 1   
    19    10    35 1   
    20    11    12 1   
    21    11    15 2   
    22    12    13 1   
    23    12    36 1   
    24    13    14 ar  
    25    13    16 ar  
    26    14    15 1   
    27    14    19 ar  
    28    15    37 1   
    29    16    17 ar  
    30    16    38 1   
    31    17    18 ar  
    32    17    39 1   
    33    18    19 ar  
    34    18    20 1   
    35    19    40 1   
    36    20    21 1   
    37    20    41 1   
    38    20    42 1   
    39    21    22 1   
    40    21    26 1   
    41    22    23 1   
    42    22    43 1   
    43    22    44 1   
    44    23    24 1   
    45    23    45 1   
    46    23    46 1   
    47    24    25 1   
    48    24    27 1   
    49    24    47 1   
    50    25    26 1   
    51    25    48 1   
    52    25    49 1   
    53    26    50 1   
    54    26    51 1   
    55    27    28 1   
    56    27    52 1   
    57    27    53 1   
    58    28    54 1   
    59    28    55 1   
@<TRIPOS>SUBSTRUCTURE
     1 373         1 TEMP              0 ****  ****    0 ROOT
