@<TRIPOS>MOLECULE
374
   54    56     1     0     0
SMALL
bcc


@<TRIPOS>ATOM
      1 F1           5.7290    -2.8970    29.5380 f          1 374      -0.135900
      2 C20          4.4810    -3.2990    29.8280 ca         1 374       0.194900
      3 C19          4.2020    -3.7080    31.1100 ca         1 374      -0.215000
      4 C17          2.9040    -4.1280    31.4130 ca         1 374       0.181100
      5 O4           2.6930    -4.5060    32.6810 os         1 374      -0.310900
      6 C18          1.3970    -4.9340    33.0550 c3         1 374       0.123700
      7 C16          1.9290    -4.1310    30.4160 ca         1 374      -0.240000
      8 C15          2.2590    -3.7150    29.1340 ca         1 374      -0.031000
      9 C14          3.5350    -3.2740    28.8150 ca         1 374      -0.223600
     10 C13          3.9080    -2.9230    27.4060 c          1 374       0.697700
     11 O3           4.0620    -3.8200    26.5890 o          1 374      -0.590100
     12 N2           4.0550    -1.6210    27.1020 n          1 374      -0.469800
     13 C10          3.7550    -0.5350    28.0380 c6         1 374       0.106200
     14 C12          4.6590     0.6530    27.7490 c6         1 374       0.094000
     15 C11          2.2750    -0.1670    28.0710 c3         1 374      -0.106600
     16 C8           4.4950    -1.2660    25.7500 c6         1 374       0.106200
     17 C9           6.0030    -1.4280    25.5840 c3         1 374      -0.106600
     18 C7           4.0320     0.1420    25.4070 c6         1 374       0.094000
     19 N1           4.5340     1.1060    26.3710 n          1 374      -0.464800
     20 C6           5.0750     2.2960    26.0480 c          1 374       0.694700
     21 O2           5.6930     2.9720    26.8600 o          1 374      -0.593100
     22 C5           4.9180     2.7830    24.6450 ca         1 374      -0.228600
     23 C21          3.6850     3.0260    24.0560 ca         1 374       0.197900
     24 F2           2.5730     2.7520    24.7540 f          1 374      -0.136900
     25 C22          3.5440     3.5520    22.7930 ca         1 374      -0.222000
     26 C2           4.6920     3.8610    22.0590 ca         1 374       0.186100
     27 O1           4.4860     4.3620    20.8350 os         1 374      -0.310900
     28 C1           5.6090     4.6810    20.0330 c3         1 374       0.123700
     29 C3           5.9500     3.6430    22.6230 ca         1 374      -0.243000
     30 C4           6.0430     3.1270    23.9050 ca         1 374      -0.023000
     31 H1           4.9730    -3.7070    31.8690 ha         1 374       0.167000
     32 H2           1.4480    -5.1790    34.1130 h1         1 374       0.045033
     33 H3           0.6520    -4.1480    32.9080 h1         1 374       0.045033
     34 H4           1.0880    -5.8240    32.5020 h1         1 374       0.045033
     35 H5           0.9160    -4.4530    30.6140 ha         1 374       0.143000
     36 H6           1.4940    -3.7270    28.3680 ha         1 374       0.142000
     37 H7           4.0300    -0.8550    29.0420 h1         1 374       0.071700
     38 H8           5.6960     0.3830    27.9710 h1         1 374       0.061950
     39 H9           4.3880     1.4610    28.4290 h1         1 374       0.061950
     40 H10          2.1080     0.6090    28.8190 hc         1 374       0.046200
     41 H11          1.9030     0.2020    27.1180 hc         1 374       0.046200
     42 H12          1.6700    -1.0280    28.3530 hc         1 374       0.046200
     43 H13          3.9940    -1.9310    25.0440 h1         1 374       0.071700
     44 H14          6.3140    -2.4490    25.8030 hc         1 374       0.046200
     45 H15          6.2880    -1.2090    24.5540 hc         1 374       0.046200
     46 H16          6.5640    -0.7580    26.2360 hc         1 374       0.046200
     47 H17          4.4100     0.3770    24.4130 h1         1 374       0.061950
     48 H18          2.9420     0.1680    25.3460 h1         1 374       0.061950
     49 H19          2.5600     3.7320    22.3800 ha         1 374       0.167000
     50 H20          5.2170     5.0710    19.0980 h1         1 374       0.046033
     51 H21          6.2370     5.4460    20.4980 h1         1 374       0.046033
     52 H22          6.2190     3.8000    19.8220 h1         1 374       0.046033
     53 H23          6.8600     3.8740    22.0870 ha         1 374       0.145000
     54 H24          7.0250     2.9720    24.3340 ha         1 374       0.148000
@<TRIPOS>BOND
     1     1     2 1   
     2     2     3 ar  
     3     2     9 ar  
     4     3     4 ar  
     5     3    31 1   
     6     4     5 1   
     7     4     7 ar  
     8     5     6 1   
     9     6    32 1   
    10     6    33 1   
    11     6    34 1   
    12     7     8 ar  
    13     7    35 1   
    14     8     9 ar  
    15     8    36 1   
    16     9    10 1   
    17    10    11 2   
    18    10    12 1   
    19    12    13 1   
    20    12    16 1   
    21    13    14 1   
    22    13    15 1   
    23    13    37 1   
    24    14    19 1   
    25    14    38 1   
    26    14    39 1   
    27    15    40 1   
    28    15    41 1   
    29    15    42 1   
    30    16    17 1   
    31    16    18 1   
    32    16    43 1   
    33    17    44 1   
    34    17    45 1   
    35    17    46 1   
    36    18    19 1   
    37    18    47 1   
    38    18    48 1   
    39    19    20 1   
    40    20    21 2   
    41    20    22 1   
    42    22    23 ar  
    43    22    30 ar  
    44    23    24 1   
    45    23    25 ar  
    46    25    26 ar  
    47    25    49 1   
    48    26    27 1   
    49    26    29 ar  
    50    27    28 1   
    51    28    50 1   
    52    28    51 1   
    53    28    52 1   
    54    29    30 ar  
    55    29    53 1   
    56    30    54 1   
@<TRIPOS>SUBSTRUCTURE
     1 374         1 TEMP              0 ****  ****    0 ROOT
