@<TRIPOS>MOLECULE
374
   54    56     1     0     0
SMALL
No Charge or Current Charge


@<TRIPOS>ATOM
      1 F1           5.5710    -2.7460    29.5060 f          1 374      -0.171000
      2 C20          4.3510    -3.2280    29.8320 ca         1 374       0.230000
      3 C19          4.1000    -3.5980    31.1600 ca         1 374      -0.197000
      4 C17          2.8630    -4.1480    31.5200 ca         1 374       0.181100
      5 O4           2.6720    -4.4940    32.8410 os         1 374      -0.334100
      6 C18          1.4390    -5.0670    33.3130 c3         1 374       0.146900
      7 C16          1.8750    -4.3400    30.5320 ca         1 374      -0.222000
      8 C15          2.1270    -3.9700    29.1990 ca         1 374      -0.013000
      9 C14          3.3590    -3.3860    28.8470 ca         1 374      -0.223600
     10 C13          3.6210    -3.0170    27.4190 c          1 374       0.630700
     11 O3           3.5380    -3.8710    26.5470 o          1 374      -0.590100
     12 N2           4.0160    -1.6910    27.1160 n          1 374      -0.402800
     13 C10          3.7460    -0.5470    28.0430 c6         1 374       0.106200
     14 C12          4.6530     0.6820    27.7470 c6         1 374       0.094000
     15 C11          2.2460    -0.1370    28.0250 c3         1 374      -0.106600
     16 C8           4.5160    -1.3390    25.7510 c6         1 374       0.106200
     17 C9           6.0390    -1.6230    25.6420 c3         1 374      -0.106600
     18 C7           4.2110     0.1280    25.3300 c6         1 374       0.094000
     19 N1           4.6140     1.1540    26.3360 n          1 374      -0.397800
     20 C6           5.2620     2.3510    25.9640 c          1 374       0.627700
     21 O2           5.9440     2.9710    26.7700 o          1 374      -0.593100
     22 C5           5.0510     2.8940    24.5800 ca         1 374      -0.228600
     23 C21          3.7680     3.0020    24.0100 ca         1 374       0.233000
     24 F2           2.6650     2.6630    24.7140 f          1 374      -0.172000
     25 C22          3.6030     3.5200    22.7190 ca         1 374      -0.204000
     26 C2           4.7120     3.9530    21.9820 ca         1 374       0.186100
     27 O1           4.4900     4.4530    20.7160 os         1 374      -0.334100
     28 C1           5.5600     4.9270    19.8790 c3         1 374       0.146900
     29 C3           5.9980     3.8780    22.5560 ca         1 374      -0.225000
     30 C4           6.1630     3.3610    23.8520 ca         1 374      -0.005000
     31 H1           4.8730    -3.4670    31.9110 ha         1 374       0.149000
     32 H2           1.4990    -5.2620    34.3910 h1         1 374       0.045033
     33 H3           0.5990    -4.3840    33.1380 h1         1 374       0.045033
     34 H4           1.2320    -6.0190    32.8070 h1         1 374       0.045033
     35 H5           0.9100    -4.7750    30.7750 ha         1 374       0.125000
     36 H6           1.3610    -4.1250    28.4410 ha         1 374       0.124000
     37 H7           3.9700    -0.8440    29.0740 h1         1 374       0.071700
     38 H8           5.6900     0.4200    27.9980 h1         1 374       0.061950
     39 H9           4.3650     1.5080    28.4120 h1         1 374       0.061950
     40 H10          2.0530     0.6750    28.7350 hc         1 374       0.046200
     41 H11          1.9190     0.2030    27.0370 hc         1 374       0.046200
     42 H12          1.6060    -0.9800    28.3120 hc         1 374       0.046200
     43 H13          4.0180    -1.9850    25.0140 h1         1 374       0.071700
     44 H14          6.2590    -2.6730    25.8680 hc         1 374       0.046200
     45 H15          6.4080    -1.4200    24.6290 hc         1 374       0.046200
     46 H16          6.6190    -1.0060    26.3380 hc         1 374       0.046200
     47 H17          4.7080     0.3250    24.3690 h1         1 374       0.061950
     48 H18          3.1320     0.2160    25.1480 h1         1 374       0.061950
     49 H19          2.6080     3.5980    22.2920 ha         1 374       0.149000
     50 H20          5.1640     5.2770    18.9180 h1         1 374       0.046033
     51 H21          6.0860     5.7640    20.3550 h1         1 374       0.046033
     52 H22          6.2820     4.1250    19.6770 h1         1 374       0.046033
     53 H23          6.8780     4.2170    22.0160 ha         1 374       0.127000
     54 H24          7.1610     3.3090    24.2860 ha         1 374       0.130000
@<TRIPOS>BOND
     1     1     2 1   
     2     2     3 ar  
     3     2     9 ar  
     4     3     4 ar  
     5     3    31 1   
     6     4     5 1   
     7     4     7 ar  
     8     5     6 1   
     9     6    32 1   
    10     6    33 1   
    11     6    34 1   
    12     7     8 ar  
    13     7    35 1   
    14     8     9 ar  
    15     8    36 1   
    16     9    10 1   
    17    10    11 2   
    18    10    12 1   
    19    12    13 1   
    20    12    16 1   
    21    13    14 1   
    22    13    15 1   
    23    13    37 1   
    24    14    19 1   
    25    14    38 1   
    26    14    39 1   
    27    15    40 1   
    28    15    41 1   
    29    15    42 1   
    30    16    17 1   
    31    16    18 1   
    32    16    43 1   
    33    17    44 1   
    34    17    45 1   
    35    17    46 1   
    36    18    19 1   
    37    18    47 1   
    38    18    48 1   
    39    19    20 1   
    40    20    21 2   
    41    20    22 1   
    42    22    23 ar  
    43    22    30 ar  
    44    23    24 1   
    45    23    25 ar  
    46    25    26 ar  
    47    25    49 1   
    48    26    27 1   
    49    26    29 ar  
    50    27    28 1   
    51    28    50 1   
    52    28    51 1   
    53    28    52 1   
    54    29    30 ar  
    55    29    53 1   
    56    30    54 1   
@<TRIPOS>SUBSTRUCTURE
     1 374         1 TEMP              0 ****  ****    0 ROOT
