@<TRIPOS>MOLECULE
376
   47    49     1     0     0
SMALL
No Charge or Current Charge


@<TRIPOS>ATOM
      1 C18          4.6410    -0.2770     0.0470 ca         1 376      -0.048000
      2 C17          4.3170    -1.4980     0.6880 ca         1 376      -0.102000
      3 C16          5.3190    -2.4390     0.9830 ca         1 376      -0.103000
      4 C15          6.6540    -2.1780     0.6440 ca         1 376      -0.103000
      5 C14          6.9910    -0.9740     0.0060 ca         1 376      -0.099000
      6 C13          5.9940    -0.0260    -0.2930 ca         1 376      -0.025000
      7 C12          6.3530     1.1720    -0.9330 ca         1 376      -0.107000
      8 C11          5.3740     2.1280    -1.2330 ca         1 376      -0.092000
      9 C10          4.0310     1.8910    -0.8990 ca         1 376      -0.112000
     10 C9           3.6450     0.6880    -0.2650 ca         1 376      -0.033000
     11 N2           2.2870     0.4400     0.0920 ns         1 376      -0.128000
     12 C8           1.0910     1.0280    -0.3090 c          1 376       0.523100
     13 O8           0.9950     1.9170    -1.1590 o          1 376      -0.583100
     14 C7          -0.1850     0.4170     0.4390 c          1 376       0.532100
     15 O7          -0.1040    -0.4610     1.2950 o          1 376      -0.583100
     16 N1          -1.3980     0.9630     0.0580 ns         1 376      -0.476900
     17 C1          -2.7030     0.4590     0.4690 c6         1 376       0.302700
     18 O5          -2.9800    -0.6640    -0.3890 os         1 376      -0.455000
     19 C5          -4.2250    -1.3540    -0.0950 c6         1 376       0.178300
     20 C6          -4.3280    -2.6080    -1.0260 c3         1 376       0.172600
     21 O6          -3.2030    -3.5060    -0.9090 oh         1 376      -0.708000
     22 C4          -5.4260    -0.3750    -0.2840 c6         1 376       0.143300
     23 O4          -6.6880    -0.9840     0.0480 oh         1 376      -0.715000
     24 C3          -5.2020     0.8830     0.6040 c6         1 376       0.139300
     25 O3          -6.2580     1.8400     0.4130 oh         1 376      -0.665000
     26 C2          -3.8260     1.5360     0.2890 c6         1 376       0.096300
     27 O2          -3.6330     2.6910     1.1420 oh         1 376      -0.716000
     28 H17          3.2940    -1.7400     0.9630 ha         1 376       0.116000
     29 H16          5.0570    -3.3730     1.4760 ha         1 376       0.116000
     30 H15          7.4280    -2.9080     0.8730 ha         1 376       0.115000
     31 H14          8.0290    -0.7790    -0.2550 ha         1 376       0.115000
     32 H12          7.3910     1.3670    -1.1940 ha         1 376       0.116000
     33 H11          5.6560     3.0590    -1.7200 ha         1 376       0.117000
     34 H10          3.3060     2.6650    -1.1300 ha         1 376       0.131000
     35 HN2          2.1680    -0.2950     0.7790 hn         1 376       0.187000
     36 HN1         -1.3610     1.6510    -0.6870 hn         1 376       0.344500
     37 H1          -2.6570     0.1320     1.5200 h2         1 376       0.086700
     38 H5          -4.1990    -1.7050     0.9470 h1         1 376       0.066700
     39 H6          -5.2560    -3.1420    -0.7810 h1         1 376       0.036200
     40 H6A         -4.4210    -2.2550    -2.0630 h1         1 376       0.036200
     41 HO6         -3.3340    -4.2190    -1.5760 ho         1 376       0.504000
     42 H4          -5.4380    -0.0530    -1.3370 h1         1 376       0.052700
     43 HO4         -7.3060    -0.2250     0.1870 ho         1 376       0.526000
     44 H3          -5.1860     0.5590     1.6570 h1         1 376       0.058700
     45 HO3         -5.8830     2.6900     0.7440 ho         1 376       0.467000
     46 H2          -3.8290     1.8490    -0.7670 h1         1 376       0.055700
     47 HO2         -2.7390     3.0620     0.9500 ho         1 376       0.518000
@<TRIPOS>BOND
     1     1     2 ar  
     2     1     6 ar  
     3     1    10 ar  
     4     2     3 ar  
     5     2    28 1   
     6     3     4 ar  
     7     3    29 1   
     8     4     5 ar  
     9     4    30 1   
    10     5     6 ar  
    11     5    31 1   
    12     6     7 ar  
    13     7     8 ar  
    14     7    32 1   
    15     8     9 ar  
    16     8    33 1   
    17     9    10 ar  
    18     9    34 1   
    19    10    11 1   
    20    11    12 1   
    21    11    35 1   
    22    12    13 2   
    23    12    14 1   
    24    14    15 2   
    25    14    16 1   
    26    16    17 1   
    27    16    36 1   
    28    17    18 1   
    29    17    26 1   
    30    17    37 1   
    31    18    19 1   
    32    19    20 1   
    33    19    22 1   
    34    19    38 1   
    35    20    21 1   
    36    20    39 1   
    37    20    40 1   
    38    21    41 1   
    39    22    23 1   
    40    22    24 1   
    41    22    42 1   
    42    23    43 1   
    43    24    25 1   
    44    24    26 1   
    45    24    44 1   
    46    25    45 1   
    47    26    27 1   
    48    26    46 1   
    49    27    47 1   
@<TRIPOS>SUBSTRUCTURE
     1 376         1 TEMP              0 ****  ****    0 ROOT
