@<TRIPOS>MOLECULE
376
   47    49     1     0     0
SMALL
bcc


@<TRIPOS>ATOM
      1 C18          4.5580    -0.2140     0.1130 ca         1 376      -0.048000
      2 C17          4.2770    -1.4880     0.6620 ca         1 376      -0.120000
      3 C16          5.2780    -2.3970     0.8730 ca         1 376      -0.121000
      4 C15          6.6110    -2.0840     0.5410 ca         1 376      -0.121000
      5 C14          6.9090    -0.8690    -0.0110 ca         1 376      -0.117000
      6 C13          5.8980     0.0910    -0.2450 ca         1 376      -0.025000
      7 C12          6.1970     1.3400    -0.8370 ca         1 376      -0.125000
      8 C11          5.2060     2.2550    -1.0540 ca         1 376      -0.110000
      9 C10          3.8790     1.9820    -0.6740 ca         1 376      -0.130000
     10 C9           3.5560     0.7780    -0.1000 ca         1 376       0.059600
     11 N2           2.2460     0.4930     0.3180 ns         1 376      -0.454100
     12 C8           1.1170     0.7920    -0.3390 c          1 376       0.590100
     13 O8           1.0230     1.3820    -1.3970 o          1 376      -0.583100
     14 C7          -0.1300     0.2790     0.4050 c          1 376       0.599100
     15 O7          -0.0270    -0.3600     1.4350 o          1 376      -0.583100
     16 N1          -1.2710     0.6250    -0.2010 ns         1 376      -0.543900
     17 C1          -2.5680     0.2400     0.2600 c6         1 376       0.279500
     18 O5          -3.0160    -0.8200    -0.5450 os         1 376      -0.408600
     19 C5          -4.2630    -1.3510    -0.1390 c6         1 376       0.155100
     20 C6          -4.5670    -2.5360    -1.0290 c3         1 376       0.149400
     21 O6          -3.5860    -3.5240    -0.8220 oh         1 376      -0.585800
     22 C4          -5.3430    -0.2720    -0.2350 c6         1 376       0.120100
     23 O4          -6.5480    -0.8200     0.2360 oh         1 376      -0.592800
     24 C3          -4.9270     0.9420     0.5870 c6         1 376       0.116100
     25 O3          -5.9010     1.9390     0.4000 oh         1 376      -0.602800
     26 C2          -3.5410     1.4180     0.1740 c6         1 376       0.073100
     27 O2          -3.1660     2.4540     1.0450 oh         1 376      -0.593800
     28 H17          3.2610    -1.7690     0.9060 ha         1 376       0.134000
     29 H16          5.0420    -3.3660     1.2920 ha         1 376       0.134000
     30 H15          7.3940    -2.8090     0.7180 ha         1 376       0.133000
     31 H14          7.9300    -0.6240    -0.2790 ha         1 376       0.133000
     32 H12          7.2200     1.5600    -1.1140 ha         1 376       0.134000
     33 H11          5.4360     3.2100    -1.5060 ha         1 376       0.135000
     34 H10          3.1250     2.7410    -0.8190 ha         1 376       0.149000
     35 HN2          2.1260    -0.0280     1.1770 hn         1 376       0.353500
     36 HN1         -1.1980     1.1280    -1.0760 hn         1 376       0.344500
     37 H1          -2.4790    -0.0770     1.3070 h2         1 376       0.086700
     38 H5          -4.2030    -1.6920     0.9080 h1         1 376       0.066700
     39 H6          -5.5690    -2.9030    -0.7850 h1         1 376       0.036200
     40 H6A         -4.5930    -2.1970    -2.0750 h1         1 376       0.036200
     41 HO6         -3.8260    -4.2930    -1.3450 ho         1 376       0.405000
     42 H4          -5.4330     0.0360    -1.2890 h1         1 376       0.052700
     43 HO4         -7.2400    -0.1580     0.1360 ho         1 376       0.427000
     44 H3          -4.8800     0.6320     1.6440 h1         1 376       0.058700
     45 HO3         -5.7250     2.6580     1.0160 ho         1 376       0.428000
     46 H2          -3.5810     1.7620    -0.8700 h1         1 376       0.055700
     47 HO2         -2.4550     2.9630     0.6430 ho         1 376       0.419000
@<TRIPOS>BOND
     1     1     2 ar  
     2     1     6 ar  
     3     1    10 ar  
     4     2     3 ar  
     5     2    28 1   
     6     3     4 ar  
     7     3    29 1   
     8     4     5 ar  
     9     4    30 1   
    10     5     6 ar  
    11     5    31 1   
    12     6     7 ar  
    13     7     8 ar  
    14     7    32 1   
    15     8     9 ar  
    16     8    33 1   
    17     9    10 ar  
    18     9    34 1   
    19    10    11 1   
    20    11    12 1   
    21    11    35 1   
    22    12    13 2   
    23    12    14 1   
    24    14    15 2   
    25    14    16 1   
    26    16    17 1   
    27    16    36 1   
    28    17    18 1   
    29    17    26 1   
    30    17    37 1   
    31    18    19 1   
    32    19    20 1   
    33    19    22 1   
    34    19    38 1   
    35    20    21 1   
    36    20    39 1   
    37    20    40 1   
    38    21    41 1   
    39    22    23 1   
    40    22    24 1   
    41    22    42 1   
    42    23    43 1   
    43    24    25 1   
    44    24    26 1   
    45    24    44 1   
    46    25    45 1   
    47    26    27 1   
    48    26    46 1   
    49    27    47 1   
@<TRIPOS>SUBSTRUCTURE
     1 376         1 TEMP              0 ****  ****    0 ROOT
