@<TRIPOS>MOLECULE
377
   34    36     1     0     0
SMALL
abcg2


@<TRIPOS>ATOM
      1 C10          0.6740    -1.2610    -1.2890 c6         1 377      -0.064400
      2 C11         -1.4380     0.0640    -1.2640 c6         1 377      -0.101400
      3 N01         -2.7770     0.1160     0.8520 n8         1 377      -0.987200
      4 C02          0.7940     1.2580     0.2330 c6         1 377      -0.047000
      5 C03          0.7050    -1.2740     0.2440 c6         1 377      -0.047000
      6 C04         -1.4390     0.0700     0.2720 c6         1 377       0.171200
      7 C05         -0.0050     0.0110    -1.7970 c6         1 377      -0.050700
      8 C06          1.4580    -0.0310     0.7300 c6         1 377      -0.058400
      9 C07         -0.6480     1.2880     0.7520 c6         1 377      -0.056400
     10 C08         -0.7360    -1.1980     0.7610 c6         1 377      -0.056400
     11 C09          0.7640     1.2340    -1.3000 c6         1 377      -0.064400
     12 C12          1.5590     2.4770     0.7320 c3         1 377      -0.080100
     13 C13          1.3800    -2.5400     0.7510 c3         1 377      -0.080100
     14 H1           1.6950    -1.3320    -1.6800 hc         1 377       0.039450
     15 H2           0.1370    -2.1450    -1.6510 hc         1 377       0.039450
     16 H3          -2.0100    -0.7980    -1.6280 hc         1 377       0.036700
     17 H4          -1.9470     0.9620    -1.6340 hc         1 377       0.036700
     18 H5          -3.2640     0.9360     0.5040 hn         1 377       0.390000
     19 H6          -3.3130    -0.6760     0.5140 hn         1 377       0.390000
     20 H8          -0.0200     0.0060    -2.8910 hc         1 377       0.049700
     21 H9           2.4980    -0.0700     0.3830 hc         1 377       0.040200
     22 H10          1.4950    -0.0280     1.8260 hc         1 377       0.040200
     23 H11         -0.6550     1.3190     1.8470 hc         1 377       0.045700
     24 H12         -1.1440     2.2060     0.4090 hc         1 377       0.045700
     25 H13         -1.2950    -2.0810     0.4230 hc         1 377       0.045700
     26 H14         -0.7460    -1.2190     1.8570 hc         1 377       0.045700
     27 H15          0.2930     2.1520    -1.6710 hc         1 377       0.039450
     28 H16          1.7870     1.2250    -1.6900 hc         1 377       0.039450
     29 H17          1.5550     2.5290     1.8230 hc         1 377       0.033367
     30 H18          2.6020     2.4480     0.4060 hc         1 377       0.033367
     31 H19          1.1180     3.4020     0.3530 hc         1 377       0.033367
     32 H20          2.4190    -2.5970     0.4170 hc         1 377       0.033367
     33 H21          1.3800    -2.5810     1.8430 hc         1 377       0.033367
     34 H22          0.8660    -3.4330     0.3850 hc         1 377       0.033367
@<TRIPOS>BOND
     1     1     5 1   
     2     1     7 1   
     3     1    14 1   
     4     1    15 1   
     5     2     6 1   
     6     2     7 1   
     7     2    16 1   
     8     2    17 1   
     9     3     6 1   
    10     3    18 1   
    11     3    19 1   
    12     4     8 1   
    13     4     9 1   
    14     4    11 1   
    15     4    12 1   
    16     5     8 1   
    17     5    10 1   
    18     5    13 1   
    19     6     9 1   
    20     6    10 1   
    21     7    11 1   
    22     7    20 1   
    23     8    21 1   
    24     8    22 1   
    25     9    23 1   
    26     9    24 1   
    27    10    25 1   
    28    10    26 1   
    29    11    27 1   
    30    11    28 1   
    31    12    29 1   
    32    12    30 1   
    33    12    31 1   
    34    13    32 1   
    35    13    33 1   
    36    13    34 1   
@<TRIPOS>SUBSTRUCTURE
     1 377         1 TEMP              0 ****  ****    0 ROOT
