@<TRIPOS>MOLECULE
377
   34    36     1     0     0
SMALL
No Charge or Current Charge


@<TRIPOS>ATOM
      1 C10          0.6670    -1.3170    -1.3180 c6         1 377      -0.064400
      2 C11         -1.4700    -0.0180    -1.7170 c6         1 377      -0.101400
      3 N01         -2.9140     0.0310     0.9200 n8         1 377      -0.987200
      4 C02          0.7080     1.2560     0.2280 c6         1 377      -0.047000
      5 C03          0.6740    -1.3000     0.2570 c6         1 377      -0.047000
      6 C04         -1.5260     0.0090     0.4270 c6         1 377       0.171200
      7 C05          0.0440    -0.0400    -1.9660 c6         1 377      -0.050700
      8 C06          1.4270    -0.0270     0.7260 c6         1 377      -0.058400
      9 C07         -0.7390     1.2760     0.8360 c6         1 377      -0.056400
     10 C08         -0.7720    -1.2680     0.8650 c6         1 377      -0.056400
     11 C09          0.7000     1.2360    -1.3470 c6         1 377      -0.064400
     12 C12          1.4890     2.5060     0.7220 c3         1 377      -0.080100
     13 C13          1.4240    -2.5560     0.7830 c3         1 377      -0.080100
     14 H1           1.7000    -1.4180    -1.6790 hc         1 377       0.039450
     15 H2           0.1410    -2.2110    -1.6800 hc         1 377       0.039450
     16 H3          -1.9660    -0.9100    -2.1220 hc         1 377       0.036700
     17 H4          -1.9430     0.8770    -2.1440 hc         1 377       0.036700
     18 H5          -3.0240     0.8230     1.5630 hn         1 377       0.390000
     19 H6          -3.5330     0.2690     0.1370 hn         1 377       0.390000
     20 H8           0.2240    -0.0550    -3.0500 hc         1 377       0.049700
     21 H9           3.0620    -0.0560     0.1310 hc         1 377       0.040200
     22 H10          1.5310    -0.0080     2.4630 hc         1 377       0.040200
     23 H11         -0.6870     1.3460     1.9310 hc         1 377       0.045700
     24 H12         -1.2710     2.1730     0.4890 hc         1 377       0.045700
     25 H13         -1.3300    -2.1580     0.5420 hc         1 377       0.045700
     26 H14         -0.7220    -1.3090     1.9610 hc         1 377       0.045700
     27 H15          0.1970     2.1340    -1.7300 hc         1 377       0.039450
     28 H16          1.7350     1.3020    -1.7110 hc         1 377       0.039450
     29 H17          1.5410     2.5390     1.8170 hc         1 377       0.033367
     30 H18          2.5180     2.5110     0.3450 hc         1 377       0.033367
     31 H19          1.0100     3.4340     0.3860 hc         1 377       0.033367
     32 H20          2.4480    -2.6050     0.3930 hc         1 377       0.033367
     33 H21          1.4900    -2.5480     1.8770 hc         1 377       0.033367
     34 H22          0.9120    -3.4800     0.4870 hc         1 377       0.033367
@<TRIPOS>BOND
     1     1     5 1   
     2     1     7 1   
     3     1    14 1   
     4     1    15 1   
     5     2     6 1   
     6     2     7 1   
     7     2    16 1   
     8     2    17 1   
     9     3     6 1   
    10     3    18 1   
    11     3    19 1   
    12     4     8 1   
    13     4     9 1   
    14     4    11 1   
    15     4    12 1   
    16     5     8 1   
    17     5    10 1   
    18     5    13 1   
    19     6     9 1   
    20     6    10 1   
    21     7    11 1   
    22     7    20 1   
    23     8    21 1   
    24     8    22 1   
    25     9    23 1   
    26     9    24 1   
    27    10    25 1   
    28    10    26 1   
    29    11    27 1   
    30    11    28 1   
    31    12    29 1   
    32    12    30 1   
    33    12    31 1   
    34    13    32 1   
    35    13    33 1   
    36    13    34 1   
@<TRIPOS>SUBSTRUCTURE
     1 377         1 TEMP              0 ****  ****    0 ROOT
