@<TRIPOS>MOLECULE
378
  111   113     1     0     0
SMALL
bcc


@<TRIPOS>ATOM
      1 C           -5.8160    -3.4140     0.0470 c          1 378       0.651100
      2 N           -4.6650    -1.8550     1.5040 ns         1 378      -0.543900
      3 O           -6.9050    -2.8600     0.0450 o          1 378      -0.602100
      4 CA          -4.8570    -3.2580     1.2280 c3         1 378       0.037700
      5 CB          -5.4000    -3.9670     2.4780 c3         1 378      -0.066700
      6 CAA         -5.3990    -3.5890    -4.3970 c2         1 378      -0.211000
      7 CAB         -4.8120     8.6420    -0.1640 c2         1 378      -0.216000
      8 CAC          6.8720     0.1230    -2.7230 c3         1 378       0.145700
      9 CAF          0.1670     2.1490    -1.8910 c3         1 378      -0.088433
     10 CAG          0.6530     0.1630    -3.3280 c3         1 378      -0.088433
     11 CAH          1.9930     2.2520    -3.5760 c3         1 378      -0.088433
     12 OAI          4.9890     1.7850    -1.8190 o          1 378      -0.604000
     13 SAI          8.5610    -0.9520     0.4880 ss         1 378      -0.090800
     14 OAK          1.5150    -1.1770    -0.5740 o          1 378      -0.564100
     15 OAL         -3.4800    -1.4700    -0.3670 o          1 378      -0.607100
     16 OAM         -5.0400     0.7300     1.8000 oh         1 378      -0.602800
     17 CAN         -5.8580    -3.3560    -3.1740 c2         1 378      -0.189200
     18 CAO         -3.7980     7.8080     0.0310 c2         1 378      -0.164200
     19 CAP          4.4980     0.5230     1.8980 ca         1 378      -0.104000
     20 CAQ          3.4920    -0.3740     2.2320 ca         1 378      -0.097300
     21 CAR          5.6510     0.1010     1.2540 ca         1 378      -0.119000
     22 CAS          2.2110     0.1000     2.8550 c3         1 378       0.196100
     23 CAT         -4.8110     4.8470     0.6490 ca         1 378      -0.125500
     24 CAU         -2.4330     4.7680     0.8370 ca         1 378      -0.125500
     25 CAV         -4.8310     3.5030     0.3090 ca         1 378      -0.127500
     26 CAW         -2.4530     3.4230     0.4900 ca         1 378      -0.127500
     27 CAY          7.0290    -1.7120     0.2410 cc         1 378      -0.012100
     28 CAZ          7.1470    -2.7430    -0.6500 cd         1 378      -0.139000
     29 CBA          5.8290    -1.2430     0.9290 ca         1 378      -0.004000
     30 CBF         -2.6570     0.4830     2.0790 c3         1 378      -0.107400
     31 CBG          9.3420    -2.0090    -0.6100 cc         1 378      -0.121100
     32 CBH         -3.6810     1.3040    -0.1260 c3         1 378      -0.048100
     33 NBJ         -5.3880    -4.2180    -0.9360 ns         1 378      -0.553900
     34 NBK          3.4110     0.1610    -2.0710 ns         1 378      -0.555900
     35 NBM          1.4310     0.6720     0.7350 ns         1 378      -0.454300
     36 OBN          5.5140    -0.2700    -2.5700 os         1 378      -0.424900
     37 CBO          4.6650     0.6540    -2.1180 c          1 378       0.756100
     38 CBQ          1.7040     0.0120    -0.4100 c          1 378       0.673100
     39 CBS         -3.6120     5.4990     0.9240 ca         1 378      -0.074300
     40 CBT          8.4700    -2.9130    -1.1350 cd         1 378      -0.152000
     41 CBU         -3.6510     2.7650     0.2220 ca         1 378      -0.091300
     42 CBV          3.6670    -1.7170     1.9070 ca         1 378      -0.104000
     43 CBW          4.8190    -2.1470     1.2740 ca         1 378      -0.119000
     44 CBZ          2.3020     0.8900    -1.5110 c3         1 378       0.050700
     45 NCA          1.1130    -0.0030     1.8950 n3         1 378      -0.456600
     46 CCB          1.2700     1.3440    -2.5790 c3         1 378      -0.045000
     47 CCC         -3.8520     0.4000     1.1120 c3         1 378       0.092800
     48 CG1         -5.7310    -5.4270     2.1860 c3         1 378      -0.090100
     49 CG2         -4.3880    -3.8770     3.6170 c3         1 378      -0.090100
     50 H1          -5.1860    -1.4340     2.2580 hn         1 378       0.340500
     51 H2          -3.8860    -3.7030     0.9820 h1         1 378       0.070700
     52 H3          -6.3220    -3.4570     2.7770 hc         1 378       0.066700
     53 H4          -5.1870    -4.5940    -4.7440 ha         1 378       0.110500
     54 H5          -5.2190    -2.7850    -5.0980 ha         1 378       0.110500
     55 H6          -4.9050     9.2170    -1.0760 ha         1 378       0.112500
     56 H7          -5.5870     8.7810     0.5810 ha         1 378       0.112500
     57 H8           7.4050    -0.7670    -3.0430 h1         1 378       0.048033
     58 H9           6.9810     0.9010    -3.4790 h1         1 378       0.048033
     59 H10          7.3030     0.4710    -1.7850 h1         1 378       0.048033
     60 H11         -0.4520     1.5250    -1.2450 hc         1 378       0.039922
     61 H12          0.5780     2.9590    -1.2830 hc         1 378       0.039922
     62 H13         -0.4980     2.6000    -2.6290 hc         1 378       0.039922
     63 H14          1.4140    -0.4480    -3.8170 hc         1 378       0.039922
     64 H15          0.0700    -0.4850    -2.6740 hc         1 378       0.039922
     65 H16         -0.0150     0.5320    -4.1080 hc         1 378       0.039922
     66 H17          1.2840     2.6500    -4.3050 hc         1 378       0.039922
     67 H18          2.4670     3.0990    -3.0760 hc         1 378       0.039922
     68 H19          2.7630     1.7140    -4.1300 hc         1 378       0.039922
     69 H20         -4.9040     1.5590     2.2730 ho         1 378       0.419000
     70 H21         -6.0550    -2.3370    -2.8550 ha         1 378       0.137000
     71 H22         -3.0440     7.6930    -0.7430 ha         1 378       0.121000
     72 H23          4.3750     1.5750     2.1270 ha         1 378       0.136000
     73 H24          6.4020     0.8330     0.9830 ha         1 378       0.138500
     74 H25          1.9450    -0.5170     3.7160 h1         1 378       0.045700
     75 H26          2.3350     1.1300     3.2240 h1         1 378       0.045700
     76 H27         -5.7430     5.3990     0.6990 ha         1 378       0.131000
     77 H28         -1.4840     5.2500     1.0410 ha         1 378       0.131000
     78 H29         -5.7790     3.0260     0.0900 ha         1 378       0.135000
     79 H30         -1.5150     2.8840     0.4230 ha         1 378       0.135000
     80 H31          6.3090    -3.3480    -0.9670 ha         1 378       0.158000
     81 H32         -7.1960    -4.4500    -1.9130 h1         1 378       0.059200
     82 H33         -5.8710    -5.4070    -2.5590 h1         1 378       0.059200
     83 H34         -1.1550     0.3490     0.5270 hc         1 378       0.068200
     84 H35         -1.3170    -1.1100     1.4710 hc         1 378       0.068200
     85 H36         -2.6440     7.2260     1.7220 hc         1 378       0.052200
     86 H37         -4.3810     7.1960     1.9900 hc         1 378       0.052200
     87 H38         -0.2060     1.5100     2.5830 h1         1 378       0.033200
     88 H39         -0.2790    -0.0350     3.4170 h1         1 378       0.033200
     89 H40         -2.9200    -0.0690     2.9860 hc         1 378       0.047200
     90 H41         -2.5510     1.5300     2.3820 hc         1 378       0.047200
     91 H42         10.3990    -1.9110    -0.8030 h4         1 378       0.168000
     92 H44         -4.5110     1.1100    -0.8100 hc         1 378       0.074700
     93 H45         -2.7740     1.0240    -0.6610 hc         1 378       0.074700
     94 H46         -4.4240    -4.5070    -0.9310 hn         1 378       0.317500
     95 H47          3.2740    -0.8200    -2.2640 hn         1 378       0.344500
     96 H48          1.6860     1.6510     0.8090 hn         1 378       0.299500
     97 H49          8.7570    -3.6700    -1.8510 ha         1 378       0.152000
     98 H51          2.8940    -2.4350     2.1520 ha         1 378       0.136000
     99 H52          4.9450    -3.2000     1.0530 ha         1 378       0.138500
    100 H53          2.7090     1.7980    -1.0600 h1         1 378       0.078700
    101 H54         -4.8540    -5.9650     1.8180 hc         1 378       0.038367
    102 H55         -6.0620    -5.9250     3.0970 hc         1 378       0.038367
    103 H56         -6.5270    -5.5420     1.4500 hc         1 378       0.038367
    104 H57         -4.1500    -2.8490     3.8890 hc         1 378       0.038367
    105 H58         -4.7740    -4.3700     4.5100 hc         1 378       0.038367
    106 H59         -3.4550    -4.3720     3.3390 hc         1 378       0.038367
    107 CBR         -3.9960    -1.0570     0.6600 c          1 378       0.677100
    108 CBB         -6.1330    -4.4260    -2.1600 c3         1 378       0.130200
    109 CBC         -1.3230    -0.0210     1.5400 c3         1 378      -0.072400
    110 CBD         -3.6010     6.9700     1.2590 c3         1 378      -0.000900
    111 CBE         -0.1720     0.4190     2.4290 c3         1 378       0.162800
@<TRIPOS>BOND
     1     1     3 2   
     2     1     4 1   
     3     1    33 1   
     4     2     4 1   
     5     2    50 1   
     6     2   107 1   
     7     4     5 1   
     8     4    51 1   
     9     5    48 1   
    10     5    49 1   
    11     5    52 1   
    12     6    17 2   
    13     6    53 1   
    14     6    54 1   
    15     7    18 2   
    16     7    55 1   
    17     7    56 1   
    18     8    36 1   
    19     8    57 1   
    20     8    58 1   
    21     8    59 1   
    22     9    46 1   
    23     9    60 1   
    24     9    61 1   
    25     9    62 1   
    26    10    46 1   
    27    10    63 1   
    28    10    64 1   
    29    10    65 1   
    30    11    46 1   
    31    11    66 1   
    32    11    67 1   
    33    11    68 1   
    34    12    37 2   
    35    13    27 1   
    36    13    31 1   
    37    14    38 2   
    38    15   107 2   
    39    16    47 1   
    40    16    69 1   
    41    17    70 1   
    42    17   108 1   
    43    18    71 1   
    44    18   110 1   
    45    19    20 ar  
    46    19    21 ar  
    47    19    72 1   
    48    20    22 1   
    49    20    42 ar  
    50    21    29 ar  
    51    21    73 1   
    52    22    45 1   
    53    22    74 1   
    54    22    75 1   
    55    23    25 ar  
    56    23    39 ar  
    57    23    76 1   
    58    24    26 ar  
    59    24    39 ar  
    60    24    77 1   
    61    25    41 ar  
    62    25    78 1   
    63    26    41 ar  
    64    26    79 1   
    65    27    28 2   
    66    27    29 1   
    67    28    40 1   
    68    28    80 1   
    69    29    43 ar  
    70    30    47 1   
    71    30    89 1   
    72    30    90 1   
    73    30   109 1   
    74    31    40 2   
    75    31    91 1   
    76    32    41 1   
    77    32    47 1   
    78    32    92 1   
    79    32    93 1   
    80    33    94 1   
    81    33   108 1   
    82    34    37 1   
    83    34    44 1   
    84    34    95 1   
    85    35    38 1   
    86    35    45 1   
    87    35    96 1   
    88    36    37 1   
    89    38    44 1   
    90    39   110 1   
    91    40    97 1   
    92    42    43 ar  
    93    42    98 1   
    94    43    99 1   
    95    44    46 1   
    96    44   100 1   
    97    45   111 1   
    98    47   107 1   
    99    48   101 1   
   100    48   102 1   
   101    48   103 1   
   102    49   104 1   
   103    49   105 1   
   104    49   106 1   
   105    81   108 1   
   106    82   108 1   
   107    83   109 1   
   108    84   109 1   
   109    85   110 1   
   110    86   110 1   
   111    87   111 1   
   112    88   111 1   
   113   109   111 1   
@<TRIPOS>SUBSTRUCTURE
     1 378         1 TEMP              0 ****  ****    0 ROOT
