@<TRIPOS>MOLECULE
378
  111   113     1     0     0
SMALL
No Charge or Current Charge


@<TRIPOS>ATOM
      1 C           -6.9410    -3.2490     0.1100 c          1 378       0.584100
      2 N           -5.0570    -1.7320     0.6070 ns         1 378      -0.476900
      3 O           -7.7210    -2.5860     0.7840 o          1 378      -0.602100
      4 CA          -5.3920    -3.1230     0.2330 c3         1 378       0.037700
      5 CB          -4.7870    -4.1400     1.2590 c3         1 378      -0.066700
      6 CAA         -8.4510    -6.8180    -1.9080 c2         1 378      -0.311000
      7 CAB         -4.4580     9.0680    -0.0650 c2         1 378      -0.316000
      8 CAC          7.4640     0.0340    -2.6800 c3         1 378       0.168900
      9 CAF          0.8680     2.6550    -1.6610 c3         1 378      -0.088433
     10 CAG          1.3630     0.8610    -3.3650 c3         1 378      -0.088433
     11 CAH          2.8790     2.8710    -3.1500 c3         1 378      -0.088433
     12 OAI          5.7260     1.8200    -1.4940 o          1 378      -0.555000
     13 SAI          8.8980    -0.6500     1.1080 ss         1 378       0.199000
     14 OAK          1.9510    -1.0680    -0.6520 o          1 378      -0.564100
     15 OAL         -3.2860    -1.4160    -0.7830 o          1 378      -0.607100
     16 OAM         -5.0760     0.8190     1.4500 oh         1 378      -0.665000
     17 CAN         -8.8840    -5.5610    -2.1050 c2         1 378      -0.239200
     18 CAO         -3.5840     8.0740     0.1570 c2         1 378      -0.214200
     19 CAP          4.5300     0.4670     2.2790 ca         1 378      -0.086000
     20 CAQ          3.5510    -0.5300     2.4560 ca         1 378      -0.097300
     21 CAR          5.7840     0.1430     1.7340 ca         1 378      -0.101000
     22 CAS          2.1610    -0.1640     2.9760 c3         1 378       0.196100
     23 CAT         -4.8490     5.0410     0.5330 ca         1 378      -0.107500
     24 CAU         -2.4380     4.9290     0.8040 ca         1 378      -0.107500
     25 CAV         -4.8650     3.6990     0.1160 ca         1 378      -0.109500
     26 CAW         -2.4540     3.5870     0.3870 ca         1 378      -0.109500
     27 CAY          7.3910    -1.4980     0.7780 cc         1 378      -0.157000
     28 CAZ          7.5520    -2.4880    -0.1600 cd         1 378      -0.121000
     29 CBA          6.0820    -1.1800     1.3550 ca         1 378      -0.004000
     30 CBF         -2.7210     0.4830     1.7910 c3         1 378      -0.107400
     31 CBG          9.7490    -1.6880    -0.0360 cc         1 378      -0.248000
     32 CBH         -3.6900     1.4990    -0.4120 c3         1 378      -0.048100
     33 NBJ         -7.3870    -4.1470    -0.8350 ns         1 378      -0.486900
     34 NBK          4.0030     0.3600    -1.9180 ns         1 378      -0.488900
     35 NBM          1.5910     0.6850     0.7940 ns         1 378      -0.387300
     36 OBN          6.0490    -0.1920    -2.5630 os         1 378      -0.448100
     37 CBO          5.3050     0.7670    -1.9480 c          1 378       0.640100
     38 CBQ          2.0870     0.1230    -0.3820 c          1 378       0.606100
     39 CBS         -3.6360     5.6630     0.8840 ca         1 378      -0.074300
     40 CBT          8.8950    -2.5950    -0.6160 cd         1 378      -0.134000
     41 CBU         -3.6680     2.9590     0.0480 ca         1 378      -0.091300
     42 CBV          3.8490    -1.8560     2.0930 ca         1 378      -0.086000
     43 CBW          5.1050    -2.1790     1.5480 ca         1 378      -0.101000
     44 CBZ          2.8860     1.1060    -1.2920 c3         1 378       0.050700
     45 NCA          1.1410    -0.1110     1.8980 n3         1 378      -0.456600
     46 CCB          2.0040     1.8580    -2.3580 c3         1 378      -0.045000
     47 CCC         -3.8710     0.4540     0.7350 c3         1 378       0.116000
     48 CG1         -5.1060    -5.6140     0.9040 c3         1 378      -0.090100
     49 CG2         -3.2590    -3.9620     1.4580 c3         1 378      -0.090100
     50 H1          -5.6400    -1.2460     1.2830 hn         1 378       0.340500
     51 H2          -4.9720    -3.3310    -0.7600 h1         1 378       0.070700
     52 H3          -5.2570    -3.9390     2.2310 hc         1 378       0.066700
     53 H4          -7.9830    -7.1250    -0.9700 ha         1 378       0.160500
     54 H5          -8.5510    -7.5850    -2.6780 ha         1 378       0.160500
     55 H6          -4.3710     9.7210    -0.9350 ha         1 378       0.162500
     56 H7          -5.2920     9.2650     0.6110 ha         1 378       0.162500
     57 H8           7.9490    -0.8220    -3.1650 h1         1 378       0.048033
     58 H9           7.6680     0.9290    -3.2830 h1         1 378       0.048033
     59 H10          7.9220     0.1700    -1.6920 h1         1 378       0.048033
     60 H11          0.1450     1.9840    -1.1860 hc         1 378       0.039922
     61 H12          1.2700     3.3290    -0.8950 hc         1 378       0.039922
     62 H13          0.3140     3.2650    -2.3860 hc         1 378       0.039922
     63 H14          2.1280     0.2920    -3.9060 hc         1 378       0.039922
     64 H15          0.7050     0.1470    -2.8550 hc         1 378       0.039922
     65 H16          0.7590     1.3940    -4.1090 hc         1 378       0.039922
     66 H17          2.2690     3.4550    -3.8500 hc         1 378       0.039922
     67 H18          3.3760     3.5730    -2.4700 hc         1 378       0.039922
     68 H19          3.6530     2.3610    -3.7370 hc         1 378       0.039922
     69 H20         -5.0010     1.7790     1.6490 ho         1 378       0.458000
     70 H21         -9.3520    -5.2760    -3.0510 ha         1 378       0.187000
     71 H22         -2.7580     7.8980    -0.5370 ha         1 378       0.171000
     72 H23          4.3120     1.4990     2.5450 ha         1 378       0.118000
     73 H24          6.5170     0.9330     1.5900 ha         1 378       0.120500
     74 H25          1.8620    -0.9010     3.7330 h1         1 378       0.045700
     75 H26          2.2170     0.8090     3.4820 h1         1 378       0.045700
     76 H27         -5.7800     5.6010     0.5800 ha         1 378       0.113000
     77 H28         -1.4920     5.3980     1.0640 ha         1 378       0.113000
     78 H29         -5.8110     3.2370    -0.1580 ha         1 378       0.117000
     79 H30         -1.5180     3.0380     0.3310 ha         1 378       0.117000
     80 H31          6.7480    -3.1140    -0.5340 ha         1 378       0.140000
     81 H32         -9.2770    -3.5320    -1.4890 h1         1 378       0.059200
     82 H33         -9.2850    -4.7230    -0.1620 h1         1 378       0.059200
     83 H34         -1.0510     0.6830     0.4060 hc         1 378       0.068200
     84 H35         -1.3080    -0.9630     0.9670 hc         1 378       0.068200
     85 H36         -2.7550     7.3000     1.9770 hc         1 378       0.052200
     86 H37         -4.5010     7.3200     1.9580 hc         1 378       0.052200
     87 H38         -0.2130     1.3140     2.6900 h1         1 378       0.033200
     88 H39         -0.4870    -0.3470     3.2260 h1         1 378       0.033200
     89 H40         -2.9870    -0.1950     2.6120 hc         1 378       0.047200
     90 H41         -2.6660     1.4840     2.2370 hc         1 378       0.047200
     91 H42         10.8100    -1.5460    -0.1980 h4         1 378       0.150000
     92 H44         -4.5050     1.3610    -1.1340 hc         1 378       0.074700
     93 H45         -2.7770     1.2750    -0.9760 hc         1 378       0.074700
     94 H46         -6.6880    -4.6590    -1.3590 hn         1 378       0.317500
     95 H47          3.8200    -0.5570    -2.3040 hn         1 378       0.344500
     96 H48          1.7550     1.6780     0.9340 hn         1 378       0.299500
     97 H49          9.2130    -3.3210    -1.3590 ha         1 378       0.134000
     98 H51          3.0990    -2.6330     2.2150 ha         1 378       0.118000
     99 H52          5.3120    -3.2110     1.2800 ha         1 378       0.120500
    100 H53          3.3190     1.8570    -0.6190 h1         1 378       0.078700
    101 H54         -4.7440    -5.8620    -0.1010 hc         1 378       0.038367
    102 H55         -4.6270    -6.2970     1.6160 hc         1 378       0.038367
    103 H56         -6.1840    -5.8110     0.9450 hc         1 378       0.038367
    104 H57         -3.0220    -2.9770     1.8780 hc         1 378       0.038367
    105 H58         -2.8680    -4.7130     2.1540 hc         1 378       0.038367
    106 H59         -2.7270    -4.0700     0.5050 hc         1 378       0.038367
    107 CBR         -4.0040    -0.9910     0.1140 c          1 378       0.610100
    108 CBB         -8.7900    -4.4370    -1.1000 c3         1 378       0.130200
    109 CBC         -1.3100     0.0860     1.2840 c3         1 378      -0.072400
    110 CBD         -3.6230     7.1180     1.3320 c3         1 378      -0.000900
    111 CBE         -0.2140     0.2670     2.3580 c3         1 378       0.162800
@<TRIPOS>BOND
     1     1     3 2   
     2     1     4 1   
     3     1    33 1   
     4     2     4 1   
     5     2    50 1   
     6     2   107 1   
     7     4     5 1   
     8     4    51 1   
     9     5    48 1   
    10     5    49 1   
    11     5    52 1   
    12     6    17 2   
    13     6    53 1   
    14     6    54 1   
    15     7    18 2   
    16     7    55 1   
    17     7    56 1   
    18     8    36 1   
    19     8    57 1   
    20     8    58 1   
    21     8    59 1   
    22     9    46 1   
    23     9    60 1   
    24     9    61 1   
    25     9    62 1   
    26    10    46 1   
    27    10    63 1   
    28    10    64 1   
    29    10    65 1   
    30    11    46 1   
    31    11    66 1   
    32    11    67 1   
    33    11    68 1   
    34    12    37 2   
    35    13    27 1   
    36    13    31 1   
    37    14    38 2   
    38    15   107 2   
    39    16    47 1   
    40    16    69 1   
    41    17    70 1   
    42    17   108 1   
    43    18    71 1   
    44    18   110 1   
    45    19    20 ar  
    46    19    21 ar  
    47    19    72 1   
    48    20    22 1   
    49    20    42 ar  
    50    21    29 ar  
    51    21    73 1   
    52    22    45 1   
    53    22    74 1   
    54    22    75 1   
    55    23    25 ar  
    56    23    39 ar  
    57    23    76 1   
    58    24    26 ar  
    59    24    39 ar  
    60    24    77 1   
    61    25    41 ar  
    62    25    78 1   
    63    26    41 ar  
    64    26    79 1   
    65    27    28 2   
    66    27    29 1   
    67    28    40 1   
    68    28    80 1   
    69    29    43 ar  
    70    30    47 1   
    71    30    89 1   
    72    30    90 1   
    73    30   109 1   
    74    31    40 2   
    75    31    91 1   
    76    32    41 1   
    77    32    47 1   
    78    32    92 1   
    79    32    93 1   
    80    33    94 1   
    81    33   108 1   
    82    34    37 1   
    83    34    44 1   
    84    34    95 1   
    85    35    38 1   
    86    35    45 1   
    87    35    96 1   
    88    36    37 1   
    89    38    44 1   
    90    39   110 1   
    91    40    97 1   
    92    42    43 ar  
    93    42    98 1   
    94    43    99 1   
    95    44    46 1   
    96    44   100 1   
    97    45   111 1   
    98    47   107 1   
    99    48   101 1   
   100    48   102 1   
   101    48   103 1   
   102    49   104 1   
   103    49   105 1   
   104    49   106 1   
   105    81   108 1   
   106    82   108 1   
   107    83   109 1   
   108    84   109 1   
   109    85   110 1   
   110    86   110 1   
   111    87   111 1   
   112    88   111 1   
   113   109   111 1   
@<TRIPOS>SUBSTRUCTURE
     1 378         1 TEMP              0 ****  ****    0 ROOT
