@<TRIPOS>MOLECULE
379
   46    47     1     0     0
SMALL
No Charge or Current Charge


@<TRIPOS>ATOM
      1 P11         -0.4430     0.1560     0.1090 p5         1 379       1.407000
      2 C1          -3.1900     1.0710    -0.2460 c3         1 379      -0.058400
      3 C3          -1.7820     1.5430     0.2280 c3         1 379      -0.187500
      4 C6          -3.7780    -0.1440     0.5120 c3         1 379      -0.052100
      5 C8          -5.2280    -0.4120     0.1260 ca         1 379      -0.081300
      6 N10         -1.5570     2.9370    -0.3430 n8         1 379      -0.971200
      7 C11          1.1550     1.0550     0.4010 c3         1 379      -0.405400
      8 O12         -0.4350    -0.4400    -1.2660 o          1 379      -0.819500
      9 C13          2.4700     0.2340     0.1620 c3         1 379      -0.148700
     10 O13         -0.6540    -0.8650     1.1850 o          1 379      -0.819500
     11 C15          2.5630    -1.0550     1.0340 c          1 379       0.726000
     12 C16          3.7300     1.1230     0.3390 c3         1 379      -0.021100
     13 C01         -5.5440    -1.0250    -1.1070 ca         1 379       0.338900
     14 C17          5.0170     0.4270    -0.0910 ca         1 379      -0.015300
     15 N18         -6.8140    -1.2880    -1.5050 nb         1 379      -0.681000
     16 C19         -7.8180    -0.9400    -0.6700 ca         1 379       0.299900
     17 C20         -7.5980    -0.3250     0.5750 ca         1 379      -0.182000
     18 C21         -6.2820    -0.0530     0.9850 ca         1 379      -0.093000
     19 O23          2.6340    -0.9400     2.2500 o          1 379      -0.744500
     20 O24          2.5950    -2.1360     0.4630 o          1 379      -0.744500
     21 C36          5.3310     0.2980    -1.4580 ca         1 379      -0.099000
     22 C37          6.5190    -0.3380    -1.8580 ca         1 379      -0.128500
     23 C38          7.4020    -0.8480    -0.8920 ca         1 379      -0.152000
     24 C39          7.0960    -0.7230     0.4730 ca         1 379      -0.128500
     25 C40          5.9080    -0.0870     0.8730 ca         1 379      -0.099000
     26 H1          -3.8980     1.9020    -0.1350 hc         1 379       0.015700
     27 H2          -3.1520     0.8370    -1.3180 hc         1 379       0.015700
     28 H12         -1.8460     1.6790     1.3160 h1         1 379       0.045700
     29 H6          -3.1810    -1.0390     0.3030 hc         1 379       0.081200
     30 H7          -3.7000     0.0330     1.5920 hc         1 379       0.081200
     31 H11         -1.4270     2.8830    -1.3620 hn         1 379       0.370500
     32 H13         -2.4070     3.5030    -0.2330 hn         1 379       0.370500
     33 H16          1.1450     1.9270    -0.2620 hc         1 379       0.029200
     34 H17          1.1270     1.4280     1.4310 hc         1 379       0.029200
     35 H18          2.4490    -0.0890    -0.8870 hc         1 379       0.049700
     36 H19          3.6070     2.0390    -0.2530 hc         1 379       0.024200
     37 H20          3.8010     1.4510     1.3830 hc         1 379       0.024200
     38 H8          -4.7530    -1.3150    -1.7980 h4         1 379       0.044100
     39 H10         -8.8290    -1.1600    -1.0100 h4         1 379      -0.007900
     40 H14         -8.4410    -0.0630     1.2090 ha         1 379       0.097000
     41 H15         -6.0890     0.4240     1.9440 ha         1 379       0.110000
     42 H21          4.6520     0.6920    -2.2110 ha         1 379       0.121500
     43 H22          6.7550    -0.4340    -2.9150 ha         1 379       0.081500
     44 H25          8.3210    -1.3400    -1.2010 ha         1 379       0.075000
     45 H23          7.7790    -1.1180     1.2220 ha         1 379       0.081500
     46 H24          5.6770     0.0050     1.9320 ha         1 379       0.121500
@<TRIPOS>BOND
     1     1     3 1   
     2     1     7 1   
     3     1     8 1   
     4     1    10 1   
     5     2     3 1   
     6     2     4 1   
     7     2    26 1   
     8     2    27 1   
     9     3     6 1   
    10     3    28 1   
    11     4     5 1   
    12     4    29 1   
    13     4    30 1   
    14     5    13 ar  
    15     5    18 ar  
    16     6    31 1   
    17     6    32 1   
    18     7     9 1   
    19     7    33 1   
    20     7    34 1   
    21     9    11 1   
    22     9    12 1   
    23     9    35 1   
    24    11    19 1   
    25    11    20 1   
    26    12    14 1   
    27    12    36 1   
    28    12    37 1   
    29    13    15 ar  
    30    13    38 1   
    31    14    21 ar  
    32    14    25 ar  
    33    15    16 ar  
    34    16    17 ar  
    35    16    39 1   
    36    17    18 ar  
    37    17    40 1   
    38    18    41 1   
    39    21    22 ar  
    40    21    42 1   
    41    22    23 ar  
    42    22    43 1   
    43    23    24 ar  
    44    23    44 1   
    45    24    25 ar  
    46    24    45 1   
    47    25    46 1   
@<TRIPOS>SUBSTRUCTURE
     1 379         1 TEMP              0 ****  ****    0 ROOT
