@<TRIPOS>MOLECULE
379
   46    47     1     0     0
SMALL
abcg2


@<TRIPOS>ATOM
      1 P11         -0.4260     0.1650    -0.2480 p5         1 379       1.407000
      2 C1          -3.1270     0.9720    -0.2800 c3         1 379      -0.058400
      3 C3          -1.7160     1.4700     0.0650 c3         1 379      -0.187500
      4 C6          -3.7400     0.0240     0.7530 c3         1 379      -0.052100
      5 C8          -5.1440    -0.3580     0.3930 ca         1 379      -0.081300
      6 N10         -1.3310     2.6600    -0.6880 n8         1 379      -0.971200
      7 C11          1.0850     0.9170     0.4770 c3         1 379      -0.405400
      8 O12         -0.2670     0.0770    -1.7580 o          1 379      -0.819500
      9 C13          2.3750     0.2040     0.0740 c3         1 379      -0.148700
     10 O13         -0.7840    -1.0980     0.5140 o          1 379      -0.819500
     11 C15          2.4390    -1.2250     0.6490 c          1 379       0.726000
     12 C16          3.5910     1.0180     0.5440 c3         1 379      -0.021100
     13 C01         -5.4220    -1.5600    -0.2530 ca         1 379       0.338900
     14 C17          4.8960     0.4620     0.0520 ca         1 379      -0.015300
     15 N18         -6.6350    -1.9460    -0.6310 nb         1 379      -0.681000
     16 C19         -7.6530    -1.1330    -0.3760 ca         1 379       0.299900
     17 C20         -7.5000     0.0890     0.2630 ca         1 379      -0.182000
     18 C21         -6.2270     0.4780     0.6500 ca         1 379      -0.093000
     19 O23          2.4750    -1.3160     1.8950 o          1 379      -0.744500
     20 O24          2.4750    -2.1740    -0.1580 o          1 379      -0.744500
     21 C36          5.4010     0.8340    -1.1930 ca         1 379      -0.099000
     22 C37          6.5900     0.3020    -1.6740 ca         1 379      -0.128500
     23 C38          7.3020    -0.6160    -0.9110 ca         1 379      -0.152000
     24 C39          6.8110    -0.9950     0.3320 ca         1 379      -0.128500
     25 C40          5.6180    -0.4630     0.8050 ca         1 379      -0.099000
     26 H1          -3.7820     1.8460    -0.3750 hc         1 379       0.015700
     27 H2          -3.1170     0.4930    -1.2650 hc         1 379       0.015700
     28 H12         -1.6910     1.7230     1.1320 h1         1 379       0.045700
     29 H6          -3.1170    -0.8650     0.8400 hc         1 379       0.081200
     30 H7          -3.7350     0.5140     1.7320 hc         1 379       0.081200
     31 H11         -1.2390     2.4090    -1.6650 hn         1 379       0.370500
     32 H13         -2.0730     3.3490    -0.6400 hn         1 379       0.370500
     33 H16          1.1250     1.9620     0.1570 hc         1 379       0.029200
     34 H17          0.9930     0.9270     1.5680 hc         1 379       0.029200
     35 H18          2.4080     0.1480    -1.0180 hc         1 379       0.049700
     36 H19          3.4790     2.0490     0.1930 hc         1 379       0.024200
     37 H20          3.5860     1.0550     1.6350 hc         1 379       0.024200
     38 H8          -4.6100    -2.2480    -0.4710 h4         1 379       0.044100
     39 H10         -8.6350    -1.4680    -0.6890 h4         1 379      -0.007900
     40 H14         -8.3600     0.7170     0.4540 ha         1 379       0.097000
     41 H15         -6.0730     1.4250     1.1540 ha         1 379       0.110000
     42 H21          4.8550     1.5530    -1.7940 ha         1 379       0.121500
     43 H22          6.9630     0.6080    -2.6430 ha         1 379       0.081500
     44 H25          8.2310    -1.0300    -1.2800 ha         1 379       0.075000
     45 H23          7.3570    -1.7100     0.9350 ha         1 379       0.081500
     46 H24          5.2350    -0.7730     1.7700 ha         1 379       0.121500
@<TRIPOS>BOND
     1     1     3 1   
     2     1     7 1   
     3     1     8 1   
     4     1    10 1   
     5     2     3 1   
     6     2     4 1   
     7     2    26 1   
     8     2    27 1   
     9     3     6 1   
    10     3    28 1   
    11     4     5 1   
    12     4    29 1   
    13     4    30 1   
    14     5    13 ar  
    15     5    18 ar  
    16     6    31 1   
    17     6    32 1   
    18     7     9 1   
    19     7    33 1   
    20     7    34 1   
    21     9    11 1   
    22     9    12 1   
    23     9    35 1   
    24    11    19 1   
    25    11    20 1   
    26    12    14 1   
    27    12    36 1   
    28    12    37 1   
    29    13    15 ar  
    30    13    38 1   
    31    14    21 ar  
    32    14    25 ar  
    33    15    16 ar  
    34    16    17 ar  
    35    16    39 1   
    36    17    18 ar  
    37    17    40 1   
    38    18    41 1   
    39    21    22 ar  
    40    21    42 1   
    41    22    23 ar  
    42    22    43 1   
    43    23    24 ar  
    44    23    44 1   
    45    24    25 ar  
    46    24    45 1   
    47    25    46 1   
@<TRIPOS>SUBSTRUCTURE
     1 379         1 TEMP              0 ****  ****    0 ROOT
