@<TRIPOS>MOLECULE
37A
   49    52     1     0     0
SMALL
No Charge or Current Charge


@<TRIPOS>ATOM
      1 O6          -0.2460    -1.1770     0.4690 o          1 37A      -0.568100
      2 C9           0.5910    -0.5230    -0.1420 c          1 37A       0.591100
      3 C6           1.0040    -0.6630    -1.6390 c5         1 37A       0.058300
      4 O2           0.0270    -1.4300    -2.4060 os         1 37A      -0.430000
      5 C5           2.2960    -1.5430    -1.7290 c5         1 37A       0.113300
      6 C7           3.2770    -1.0080    -2.8010 c6         1 37A       0.081000
      7 N1           2.6810    -0.9600    -4.1730 n          1 37A      -0.425800
      8 C21          3.3680    -0.3110    -5.2190 c          1 37A       0.627100
      9 O1           4.4100     0.3000    -5.0230 o          1 37A      -0.596100
     10 N2           2.7830    -0.3970    -6.4780 ns         1 37A      -0.339400
     11 O4           3.5030     0.0030    -7.6710 oh         1 37A      -0.450100
     12 C3           1.4510    -1.8010    -4.4110 c6         1 37A       0.044000
     13 O3           1.7690    -2.8050    -2.1820 os         1 37A      -0.426000
     14 C1           0.7740    -2.4240    -3.1400 c5         1 37A       0.363300
     15 N3           1.2740     0.5380     0.4190 ns         1 37A      -0.508900
     16 C12          1.1730     0.9350     1.8230 c3         1 37A       0.150300
     17 C13          2.2570     0.2670     2.6540 ca         1 37A      -0.122300
     18 C15          3.5060     0.8900     2.8290 ca         1 37A      -0.095500
     19 C19          4.5110     0.2660     3.5880 ca         1 37A      -0.104500
     20 C17          4.2960    -0.9970     4.1940 cp         1 37A      -0.025000
     21 C16          3.0320    -1.6110     4.0050 ca         1 37A      -0.104500
     22 C14          2.0270    -0.9880     3.2450 ca         1 37A      -0.095500
     23 C18          5.3670    -1.6620     5.0030 cp         1 37A      -0.038000
     24 C11          6.7370    -1.5290     4.6580 ca         1 37A      -0.098500
     25 C2           7.7430    -2.1530     5.4160 ca         1 37A      -0.111000
     26 C20          5.0470    -2.4470     6.1400 ca         1 37A      -0.098500
     27 C10          6.0520    -3.0710     6.9000 ca         1 37A      -0.111000
     28 C4           7.4010    -2.9240     6.5380 ca         1 37A      -0.106000
     29 H6           1.1310     0.3320    -2.0850 h1         1 37A       0.085700
     30 H5           2.8170    -1.6650    -0.7670 h1         1 37A       0.108700
     31 H71          3.6100     0.0000    -2.5130 h1         1 37A       0.071200
     32 H72          4.1700    -1.6480    -2.8230 h1         1 37A       0.071200
     33 HN2          2.0010    -1.0310    -6.6200 hn         1 37A       0.305500
     34 HO4          2.8690     0.6040    -8.1290 ho         1 37A       0.461000
     35 H31          1.7220    -2.6270    -5.0840 h1         1 37A       0.061200
     36 H32          0.6960    -1.1960    -4.9350 h1         1 37A       0.061200
     37 H1           0.1280    -3.2720    -3.4030 h2         1 37A       0.115700
     38 HN3          1.9250     1.0410    -0.1720 hn         1 37A       0.311500
     39 H121         0.1820     0.6730     2.2160 h1         1 37A       0.064700
     40 H122         1.2750     2.0270     1.8890 h1         1 37A       0.064700
     41 H15          3.7010     1.8610     2.3770 ha         1 37A       0.120500
     42 H19          5.4620     0.7760     3.7190 ha         1 37A       0.117500
     43 H16          2.8320    -2.5870     4.4390 ha         1 37A       0.117500
     44 H14          1.0690    -1.4870     3.1110 ha         1 37A       0.120500
     45 H11          7.0230    -0.9470     3.7850 ha         1 37A       0.114000
     46 H2           8.7870    -2.0400     5.1320 ha         1 37A       0.113500
     47 H20          4.0110    -2.5630     6.4470 ha         1 37A       0.114000
     48 H10          5.7850    -3.6650     7.7710 ha         1 37A       0.113500
     49 H4           8.1790    -3.4070     7.1260 ha         1 37A       0.113000
@<TRIPOS>BOND
     1     1     2 2   
     2     2     3 1   
     3     2    15 1   
     4     3     4 1   
     5     3     5 1   
     6     3    29 1   
     7     4    14 1   
     8     5     6 1   
     9     5    13 1   
    10     5    30 1   
    11     6     7 1   
    12     6    31 1   
    13     6    32 1   
    14     7     8 1   
    15     7    12 1   
    16     8     9 2   
    17     8    10 1   
    18    10    11 1   
    19    10    33 1   
    20    11    34 1   
    21    12    14 1   
    22    12    35 1   
    23    12    36 1   
    24    13    14 1   
    25    14    37 1   
    26    15    16 1   
    27    15    38 1   
    28    16    17 1   
    29    16    39 1   
    30    16    40 1   
    31    17    18 ar  
    32    17    22 ar  
    33    18    19 ar  
    34    18    41 1   
    35    19    20 ar  
    36    19    42 1   
    37    20    21 ar  
    38    20    23 1   
    39    21    22 ar  
    40    21    43 1   
    41    22    44 1   
    42    23    24 ar  
    43    23    26 ar  
    44    24    25 ar  
    45    24    45 1   
    46    25    28 ar  
    47    25    46 1   
    48    26    27 ar  
    49    26    47 1   
    50    27    28 ar  
    51    27    48 1   
    52    28    49 1   
@<TRIPOS>SUBSTRUCTURE
     1 37A         1 TEMP              0 ****  ****    0 ROOT
