@<TRIPOS>MOLECULE
37A
   49    52     1     0     0
SMALL
abcg2


@<TRIPOS>ATOM
      1 O6           0.0350    -1.0320     0.2450 o          1 37A      -0.568100
      2 C9           0.8230    -0.2420    -0.2440 c          1 37A       0.591100
      3 C6           1.3160    -0.3780    -1.6800 c5         1 37A       0.058300
      4 O2           0.3880    -1.1100    -2.4400 os         1 37A      -0.430000
      5 C5           2.5810    -1.2600    -1.7340 c5         1 37A       0.113300
      6 C7           3.4410    -0.9570    -2.9460 c6         1 37A       0.081000
      7 N1           2.6420    -1.0650    -4.1560 n          1 37A      -0.425800
      8 C21          3.0460    -0.3700    -5.2570 c          1 37A       0.627100
      9 O1           3.9080     0.4900    -5.2190 o          1 37A      -0.596100
     10 N2           2.3490    -0.6650    -6.4150 ns         1 37A      -0.339400
     11 O4           2.8970    -0.1370    -7.5590 oh         1 37A      -0.450100
     12 C3           1.6600    -2.1350    -4.2050 c6         1 37A       0.044000
     13 O3           2.0020    -2.5450    -1.8700 os         1 37A      -0.426000
     14 C1           1.0210    -2.3080    -2.8340 c5         1 37A       0.363300
     15 N3           1.3690     0.7910     0.4150 ns         1 37A      -0.508900
     16 C12          1.1940     1.0180     1.8360 c3         1 37A       0.150300
     17 C13          2.2390     0.3110     2.6620 ca         1 37A      -0.122300
     18 C15          3.3990     0.9700     3.0550 ca         1 37A      -0.095500
     19 C19          4.3780     0.3160     3.7860 ca         1 37A      -0.104500
     20 C17          4.2260    -1.0230     4.1480 cp         1 37A      -0.025000
     21 C16          3.0590    -1.6810     3.7540 ca         1 37A      -0.104500
     22 C14          2.0830    -1.0250     3.0220 ca         1 37A      -0.095500
     23 C18          5.2660    -1.7200     4.9310 cp         1 37A      -0.038000
     24 C11          6.6200    -1.4730     4.6960 ca         1 37A      -0.098500
     25 C2           7.6000    -2.1250     5.4300 ca         1 37A      -0.111000
     26 C20          4.9220    -2.6400     5.9230 ca         1 37A      -0.098500
     27 C10          5.9010    -3.2920     6.6580 ca         1 37A      -0.111000
     28 C4           7.2440    -3.0370     6.4150 ca         1 37A      -0.106000
     29 H6           1.4930     0.6070    -2.1260 h1         1 37A       0.085700
     30 H5           3.1860    -1.2270    -0.8270 h1         1 37A       0.108700
     31 H71          3.8450     0.0500    -2.8630 h1         1 37A       0.071200
     32 H72          4.2850    -1.6550    -2.9630 h1         1 37A       0.071200
     33 HN2          2.0770    -1.6260    -6.5750 hn         1 37A       0.305500
     34 HO4          2.2910     0.5630    -7.8280 ho         1 37A       0.461000
     35 H31          2.1040    -3.0900    -4.5120 h1         1 37A       0.061200
     36 H32          0.8690    -1.8920    -4.9140 h1         1 37A       0.061200
     37 H1           0.3000    -3.1270    -2.8430 h2         1 37A       0.115700
     38 HN3          2.0270     1.3820    -0.0680 hn         1 37A       0.311500
     39 H121         0.1940     0.6900     2.1190 h1         1 37A       0.064700
     40 H122         1.2410     2.0930     2.0070 h1         1 37A       0.064700
     41 H15          3.5390     2.0130     2.7950 ha         1 37A       0.120500
     42 H19          5.2600     0.8620     4.0980 ha         1 37A       0.117500
     43 H16          2.9160    -2.7250     4.0060 ha         1 37A       0.117500
     44 H14          1.1910    -1.5610     2.7210 ha         1 37A       0.120500
     45 H11          6.9130    -0.7790     3.9170 ha         1 37A       0.114000
     46 H2           8.6440    -1.9240     5.2270 ha         1 37A       0.113500
     47 H20          3.8780    -2.8340     6.1390 ha         1 37A       0.114000
     48 H10          5.6130    -3.9940     7.4290 ha         1 37A       0.113500
     49 H4           8.0070    -3.5450     6.9910 ha         1 37A       0.113000
@<TRIPOS>BOND
     1     1     2 2   
     2     2     3 1   
     3     2    15 1   
     4     3     4 1   
     5     3     5 1   
     6     3    29 1   
     7     4    14 1   
     8     5     6 1   
     9     5    13 1   
    10     5    30 1   
    11     6     7 1   
    12     6    31 1   
    13     6    32 1   
    14     7     8 1   
    15     7    12 1   
    16     8     9 2   
    17     8    10 1   
    18    10    11 1   
    19    10    33 1   
    20    11    34 1   
    21    12    14 1   
    22    12    35 1   
    23    12    36 1   
    24    13    14 1   
    25    14    37 1   
    26    15    16 1   
    27    15    38 1   
    28    16    17 1   
    29    16    39 1   
    30    16    40 1   
    31    17    18 ar  
    32    17    22 ar  
    33    18    19 ar  
    34    18    41 1   
    35    19    20 ar  
    36    19    42 1   
    37    20    21 ar  
    38    20    23 1   
    39    21    22 ar  
    40    21    43 1   
    41    22    44 1   
    42    23    24 ar  
    43    23    26 ar  
    44    24    25 ar  
    45    24    45 1   
    46    25    28 ar  
    47    25    46 1   
    48    26    27 ar  
    49    26    47 1   
    50    27    28 ar  
    51    27    48 1   
    52    28    49 1   
@<TRIPOS>SUBSTRUCTURE
     1 37A         1 TEMP              0 ****  ****    0 ROOT
