@<TRIPOS>MOLECULE
37B
   47    48     1     0     0
SMALL
No Charge or Current Charge


@<TRIPOS>ATOM
      1 CAO          2.4540     0.2470     0.1790 c3         1 37B      -0.149700
      2 CAP          2.5770    -1.0380     1.0550 c          1 37B       0.727000
      3 OAY          2.6130    -2.1200     0.4870 o          1 37B      -0.741500
      4 OAX          2.6670    -0.9160     2.2690 o          1 37B      -0.741500
      5 CAE          1.1350     1.0540     0.4360 c3         1 37B      -0.398400
      6 PAD         -0.4550     0.1280     0.1730 p5         1 37B       1.362000
      7 OAF         -0.4750    -0.4420    -1.2120 o          1 37B      -0.806000
      8 OAG         -0.6300    -0.9080     1.2390 o          1 37B      -0.806000
      9 CAB         -1.7930     1.5090     0.3500 c3         1 37B      -0.191500
     10 NAC         -1.5500     2.9300    -0.1480 n8         1 37B      -1.007200
     11 CAA         -3.1910     1.0480    -0.1640 c3         1 37B      -0.027400
     12 CAH         -3.7830    -0.1960     0.5410 c3         1 37B      -0.059100
     13 CAI         -5.2190    -0.4680     0.1090 ca         1 37B      -0.033300
     14 CAJ         -6.2980    -0.0030     0.8860 ca         1 37B      -0.110000
     15 CAK         -7.6220    -0.2540     0.4840 ca         1 37B      -0.125000
     16 CAL         -7.8740    -0.9710    -0.6970 ca         1 37B      -0.145000
     17 CAM         -6.8020    -1.4360    -1.4770 ca         1 37B      -0.125000
     18 CAN         -5.4790    -1.1850    -1.0760 ca         1 37B      -0.110000
     19 CAQ          3.7070     1.1500     0.3310 c3         1 37B      -0.020100
     20 CAR          4.9940     0.4650    -0.1160 ca         1 37B      -0.017300
     21 CAS          5.2860     0.3320    -1.4880 ca         1 37B      -0.099500
     22 CAT          6.4750    -0.2940    -1.9040 ca         1 37B      -0.128000
     23 CAU          7.3790    -0.7890    -0.9510 ca         1 37B      -0.151000
     24 CAV          7.0950    -0.6590     0.4180 ca         1 37B      -0.128000
     25 CAW          5.9070    -0.0340     0.8350 ca         1 37B      -0.099500
     26 HAO1         2.4190    -0.0820    -0.8670 hc         1 37B       0.050700
     27 HAE1         1.1230     1.4340     1.4640 hc         1 37B       0.017200
     28 HAE2         1.1100     1.9220    -0.2310 hc         1 37B       0.017200
     29 HAB1        -1.8690     1.5930     1.4420 h1         1 37B       0.037700
     30 HAC2        -0.6640     3.2880     0.2350 hn         1 37B       0.383000
     31 HAC1        -1.3820     2.9230    -1.1640 hn         1 37B       0.383000
     32 HAA2        -3.9050     1.8720    -0.0360 hc         1 37B       0.027700
     33 HAA1        -3.1360     0.8530    -1.2430 hc         1 37B       0.027700
     34 HAH1        -3.1690    -1.0770     0.3230 hc         1 37B       0.073700
     35 HAH2        -3.7380    -0.0500     1.6270 hc         1 37B       0.073700
     36 HAJ1        -6.1110     0.5550     1.8010 ha         1 37B       0.122000
     37 HAK1        -8.4510     0.1070     1.0880 ha         1 37B       0.091000
     38 HAL1        -8.8980    -1.1650    -1.0080 ha         1 37B       0.085000
     39 HAM1        -6.9970    -1.9900    -2.3930 ha         1 37B       0.091000
     40 HAN1        -4.6540    -1.5470    -1.6860 ha         1 37B       0.122000
     41 HAQ2         3.5640     2.0610    -0.2630 hc         1 37B       0.023200
     42 HAQ1         3.7920     1.4840     1.3730 hc         1 37B       0.023200
     43 HAS1         4.5900     0.7140    -2.2320 ha         1 37B       0.121500
     44 HAT1         6.6930    -0.3940    -2.9650 ha         1 37B       0.082500
     45 HAU1         8.2980    -1.2730    -1.2730 ha         1 37B       0.075000
     46 HAV1         7.7940    -1.0430     1.1580 ha         1 37B       0.082500
     47 HAW1         5.6930     0.0610     1.8970 ha         1 37B       0.121500
@<TRIPOS>BOND
     1     1     2 1   
     2     1     5 1   
     3     1    19 1   
     4     1    26 1   
     5     2     3 1   
     6     2     4 1   
     7     5     6 1   
     8     5    27 1   
     9     5    28 1   
    10     6     7 1   
    11     6     8 1   
    12     6     9 1   
    13     9    10 1   
    14     9    11 1   
    15     9    29 1   
    16    10    30 1   
    17    10    31 1   
    18    11    12 1   
    19    11    32 1   
    20    11    33 1   
    21    12    13 1   
    22    12    34 1   
    23    12    35 1   
    24    13    14 ar  
    25    13    18 ar  
    26    14    15 ar  
    27    14    36 1   
    28    15    16 ar  
    29    15    37 1   
    30    16    17 ar  
    31    16    38 1   
    32    17    18 ar  
    33    17    39 1   
    34    18    40 1   
    35    19    20 1   
    36    19    41 1   
    37    19    42 1   
    38    20    21 ar  
    39    20    25 ar  
    40    21    22 ar  
    41    21    43 1   
    42    22    23 ar  
    43    22    44 1   
    44    23    24 ar  
    45    23    45 1   
    46    24    25 ar  
    47    24    46 1   
    48    25    47 1   
@<TRIPOS>SUBSTRUCTURE
     1 37B         1 TEMP              0 ****  ****    0 ROOT
