@<TRIPOS>MOLECULE
37B
   47    48     1     0     0
SMALL
bcc


@<TRIPOS>ATOM
      1 CAO          2.3660     0.2050     0.1030 c3         1 37B      -0.149700
      2 CAP          2.4230    -1.2340     0.6540 c          1 37B       0.937600
      3 OAY          2.4340    -2.1700    -0.1680 o          1 37B      -0.846800
      4 OAX          2.4770    -1.3450     1.8980 o          1 37B      -0.846800
      5 CAE          1.0810     0.9180     0.5260 c3         1 37B      -0.240600
      6 PAD         -0.4450     0.1720    -0.1860 p5         1 37B       1.046400
      7 OAF         -0.2850     0.0670    -1.6960 o          1 37B      -0.806000
      8 OAG         -0.7980    -1.0800     0.5970 o          1 37B      -0.806000
      9 CAB         -1.7200     1.5020     0.1020 c3         1 37B      -0.033700
     10 NAC         -1.4260     2.7140    -0.6700 n8         1 37B      -0.896800
     11 CAA         -3.1230     1.0130    -0.2700 c3         1 37B      -0.027400
     12 CAH         -3.7710     0.0890     0.7630 c3         1 37B      -0.059100
     13 CAI         -5.1480    -0.3370     0.3400 ca         1 37B      -0.033300
     14 CAJ         -6.2700     0.4250     0.6580 ca         1 37B      -0.128000
     15 CAK         -7.5370     0.0490     0.2310 ca         1 37B      -0.143000
     16 CAL         -7.7030    -1.1030    -0.5280 ca         1 37B      -0.163000
     17 CAM         -6.5930    -1.8720    -0.8530 ca         1 37B      -0.143000
     18 CAN         -5.3300    -1.4900    -0.4220 ca         1 37B      -0.128000
     19 CAQ          3.5860     1.0070     0.5810 c3         1 37B      -0.020100
     20 CAR          4.8880     0.4660     0.0630 ca         1 37B      -0.017300
     21 CAS          5.3990     0.9000    -1.1590 ca         1 37B      -0.117500
     22 CAT          6.5860     0.3870    -1.6650 ca         1 37B      -0.146000
     23 CAU          7.2880    -0.5760    -0.9510 ca         1 37B      -0.169000
     24 CAV          6.7900    -1.0190     0.2680 ca         1 37B      -0.146000
     25 CAW          5.6010    -0.5040     0.7670 ca         1 37B      -0.117500
     26 HAO1         2.3920     0.1690    -0.9900 hc         1 37B       0.050700
     27 HAE1         1.0010     0.9230     1.6170 hc         1 37B       0.017200
     28 HAE2         1.1440     1.9680     0.2160 hc         1 37B       0.017200
     29 HAB1        -1.7210     1.7800     1.1630 h1         1 37B       0.037700
     30 HAC2        -0.5800     3.1470    -0.3190 hn         1 37B       0.327800
     31 HAC1        -1.2030     2.4330    -1.6190 hn         1 37B       0.327800
     32 HAA2        -3.7580     1.8950    -0.4030 hc         1 37B       0.027700
     33 HAA1        -3.0910     0.5100    -1.2430 hc         1 37B       0.027700
     34 HAH1        -3.1360    -0.7830     0.9110 hc         1 37B       0.073700
     35 HAH2        -3.8240     0.6140     1.7220 hc         1 37B       0.073700
     36 HAJ1        -6.1510     1.3230     1.2550 ha         1 37B       0.140000
     37 HAK1        -8.3960     0.6540     0.4920 ha         1 37B       0.109000
     38 HAL1        -8.6900    -1.4010    -0.8580 ha         1 37B       0.103000
     39 HAM1        -6.7130    -2.7740    -1.4410 ha         1 37B       0.109000
     40 HAN1        -4.4700    -2.0990    -0.6790 ha         1 37B       0.140000
     41 HAQ2         3.4720     2.0460     0.2570 hc         1 37B       0.023200
     42 HAQ1         3.5920     1.0180     1.6730 hc         1 37B       0.023200
     43 HAS1         4.8600     1.6540    -1.7220 ha         1 37B       0.139500
     44 HAT1         6.9640     0.7420    -2.6150 ha         1 37B       0.100500
     45 HAU1         8.2160    -0.9760    -1.3400 ha         1 37B       0.093000
     46 HAV1         7.3310    -1.7680     0.8330 ha         1 37B       0.100500
     47 HAW1         5.2140    -0.8620     1.7130 ha         1 37B       0.139500
@<TRIPOS>BOND
     1     1     2 1   
     2     1     5 1   
     3     1    19 1   
     4     1    26 1   
     5     2     3 1   
     6     2     4 1   
     7     5     6 1   
     8     5    27 1   
     9     5    28 1   
    10     6     7 1   
    11     6     8 1   
    12     6     9 1   
    13     9    10 1   
    14     9    11 1   
    15     9    29 1   
    16    10    30 1   
    17    10    31 1   
    18    11    12 1   
    19    11    32 1   
    20    11    33 1   
    21    12    13 1   
    22    12    34 1   
    23    12    35 1   
    24    13    14 ar  
    25    13    18 ar  
    26    14    15 ar  
    27    14    36 1   
    28    15    16 ar  
    29    15    37 1   
    30    16    17 ar  
    31    16    38 1   
    32    17    18 ar  
    33    17    39 1   
    34    18    40 1   
    35    19    20 1   
    36    19    41 1   
    37    19    42 1   
    38    20    21 ar  
    39    20    25 ar  
    40    21    22 ar  
    41    21    43 1   
    42    22    23 ar  
    43    22    44 1   
    44    23    24 ar  
    45    23    45 1   
    46    24    25 ar  
    47    24    46 1   
    48    25    47 1   
@<TRIPOS>SUBSTRUCTURE
     1 37B         1 TEMP              0 ****  ****    0 ROOT
