@<TRIPOS>MOLECULE
37D
   25    26     1     0     0
SMALL
No Charge or Current Charge


@<TRIPOS>ATOM
      1 C1          -4.0230    -0.6750    -0.0240 cc         1 37D      -0.194000
      2 C2          -3.6580     0.6420     0.0640 cd         1 37D       0.146900
      3 C4          -1.8130    -0.4920    -0.1040 cd         1 37D       0.171500
      4 C5          -2.8290    -1.4140    -0.1330 cc         1 37D      -0.160000
      5 C6          -0.4140    -0.8680    -0.1920 cd         1 37D      -0.107500
      6 C9           1.7950    -1.0480    -0.3000 cc         1 37D       0.313300
      7 C10          0.7390    -0.0990    -0.1810 cc         1 37D      -0.243600
      8 C11          0.8950     1.3870    -0.0710 c          1 37D       0.642700
      9 C13          2.4460     3.2430     0.0090 c3         1 37D       0.153900
     10 C15          3.2710    -0.7450    -0.3390 c3         1 37D      -0.121400
     11 O14         -0.0340     2.1730     0.0300 o          1 37D      -0.489000
     12 O12          2.1920     1.8280    -0.0910 os         1 37D      -0.440100
     13 N8           1.3870    -2.3010    -0.3810 nd         1 37D      -0.522800
     14 N7           0.0060    -2.1940    -0.3140 na         1 37D       0.011800
     15 O3          -2.2900     0.7890     0.0170 os         1 37D      -0.194000
     16 H1          -5.0300    -1.0790    -0.0130 ha         1 37D       0.146000
     17 H2          -4.2570     1.5380     0.1590 h4         1 37D       0.059100
     18 H5          -2.7590    -2.4930    -0.2210 ha         1 37D       0.142000
     19 H13          3.5250     3.4390    -0.0210 h1         1 37D       0.046367
     20 H13A         1.9790     3.7850    -0.8230 h1         1 37D       0.046367
     21 H13B         2.0540     3.6450     0.9520 h1         1 37D       0.046367
     22 H15          3.5940    -0.2460     0.5820 hc         1 37D       0.055033
     23 H15A         3.8620    -1.6640    -0.4360 hc         1 37D       0.055033
     24 H15B         3.5190    -0.1070    -1.1940 hc         1 37D       0.055033
     25 HN7         -0.5920    -3.0180    -0.3540 hn         1 37D       0.380000
@<TRIPOS>BOND
     1     1     2 2   
     2     1     4 1   
     3     1    16 1   
     4     2    15 1   
     5     2    17 1   
     6     3     4 2   
     7     3     5 1   
     8     3    15 1   
     9     4    18 1   
    10     5     7 2   
    11     5    14 1   
    12     6     7 1   
    13     6    10 1   
    14     6    13 2   
    15     7     8 1   
    16     8    11 2   
    17     8    12 1   
    18     9    12 1   
    19     9    19 1   
    20     9    20 1   
    21     9    21 1   
    22    10    22 1   
    23    10    23 1   
    24    10    24 1   
    25    13    14 1   
    26    14    25 1   
@<TRIPOS>SUBSTRUCTURE
     1 37D         1 TEMP              0 ****  ****    0 ROOT
