@<TRIPOS>MOLECULE
37D
   25    26     1     0     0
SMALL
bcc


@<TRIPOS>ATOM
      1 C1          -3.9660    -0.5100     0.2010 cc         1 37D      -0.277300
      2 C2          -3.5930     0.5620    -0.5390 cd         1 37D       0.256600
      3 C4          -1.7750    -0.5650    -0.1760 cd         1 37D       0.281200
      4 C5          -2.7740    -1.2540     0.4380 cc         1 37D      -0.243300
      5 C6          -0.3660    -0.8600    -0.3090 cd         1 37D      -0.056800
      6 C9           1.8510    -1.0160    -0.4550 cc         1 37D       0.378600
      7 C10          0.7930    -0.0920    -0.2460 cc         1 37D      -0.308900
      8 C11          0.8500     1.3280     0.0820 c          1 37D       0.691700
      9 C13          2.2660     3.2030     0.2420 c3         1 37D       0.130700
     10 C15          3.3230    -0.7900    -0.4830 c3         1 37D      -0.121400
     11 O14         -0.0880     1.9790     0.4780 o          1 37D      -0.538000
     12 O12          2.0670     1.8300    -0.0900 os         1 37D      -0.416900
     13 N8           1.3690    -2.2310    -0.6200 nd         1 37D      -0.522800
     14 N7           0.0470    -2.1110    -0.5350 na         1 37D       0.011400
     15 O3          -2.2700     0.5350    -0.7740 os         1 37D      -0.282800
     16 H1          -4.9610    -0.7420     0.5410 ha         1 37D       0.164000
     17 H2          -4.1410     1.3930    -0.9540 h4         1 37D       0.059100
     18 H5          -2.6710    -2.1640     1.0050 ha         1 37D       0.160000
     19 H13          3.3170     3.4030     0.0550 h1         1 37D       0.046367
     20 H13A         1.6580     3.8570    -0.3820 h1         1 37D       0.046367
     21 H13B         2.0430     3.3970     1.2910 h1         1 37D       0.046367
     22 H15          3.6820    -0.3760     0.4590 hc         1 37D       0.055033
     23 H15A         3.8370    -1.7340    -0.6580 hc         1 37D       0.055033
     24 H15B         3.6070    -0.0950    -1.2720 hc         1 37D       0.055033
     25 HN7         -0.5400    -2.9210    -0.6790 hn         1 37D       0.329700
@<TRIPOS>BOND
     1     1     2 2   
     2     1     4 1   
     3     1    16 1   
     4     2    15 1   
     5     2    17 1   
     6     3     4 2   
     7     3     5 1   
     8     3    15 1   
     9     4    18 1   
    10     5     7 2   
    11     5    14 1   
    12     6     7 1   
    13     6    10 1   
    14     6    13 2   
    15     7     8 1   
    16     8    11 2   
    17     8    12 1   
    18     9    12 1   
    19     9    19 1   
    20     9    20 1   
    21     9    21 1   
    22    10    22 1   
    23    10    23 1   
    24    10    24 1   
    25    13    14 1   
    26    14    25 1   
@<TRIPOS>SUBSTRUCTURE
     1 37D         1 TEMP              0 ****  ****    0 ROOT
