@<TRIPOS>MOLECULE
37E
   31    31     1     0     0
SMALL
bcc


@<TRIPOS>ATOM
      1 C1           0.6500     0.4370    -0.9470 c3         1 37E       0.178800
      2 N2          -0.2970     0.4700     0.1630 n7         1 37E      -0.852200
      3 C3           1.6360    -0.7370    -0.9180 c3         1 37E      -0.032700
      4 C5          -1.6280    -0.0270    -0.1330 c6         1 37E       0.203500
      5 N10          1.0010    -2.0470    -1.0530 n8         1 37E      -0.852800
      6 P11          2.6980    -0.7200     0.6260 p5         1 37E       1.141700
      7 O11          1.6980    -1.0770     1.7510 o          1 37E      -0.924833
      8 O12          3.7820    -1.7820     0.4240 o          1 37E      -0.924833
      9 O13          3.2430     0.7110     0.7190 o          1 37E      -0.924833
     10 C19         -2.3240    -0.4480     1.1580 c6         1 37E      -0.082400
     11 C20         -3.7410    -0.9500     0.8980 c6         1 37E      -0.071400
     12 C21         -4.5750     0.0860     0.1500 c6         1 37E      -0.069400
     13 C22         -3.8810     0.5270    -1.1350 c6         1 37E      -0.071400
     14 C23         -2.4690     1.0290    -0.8510 c6         1 37E      -0.082400
     15 H02          0.0890     0.4130    -1.8910 h1         1 37E       0.004700
     16 H03          1.2320     1.3650    -0.9730 h1         1 37E       0.004700
     17 H04          0.1140    -0.0690     0.9240 hn         1 37E       0.444800
     18 H01          2.3090    -0.5980    -1.7760 h1         1 37E       0.033700
     19 H1          -1.6020    -0.9170    -0.7880 h1         1 37E      -0.001300
     20 H05          0.5830    -2.2920    -0.1630 hn         1 37E       0.292300
     21 H12          0.2370    -2.0010    -1.7190 hn         1 37E       0.292300
     22 H2          -1.7340    -1.2240     1.6560 hc         1 37E       0.048450
     23 H3          -2.3530     0.4100     1.8400 hc         1 37E       0.048450
     24 H4          -3.6920    -1.8710     0.3060 hc         1 37E       0.018450
     25 H5          -4.2240    -1.2160     1.8410 hc         1 37E       0.018450
     26 H6          -5.5670    -0.3150    -0.0700 hc         1 37E       0.014200
     27 H7          -4.7270     0.9600     0.7930 hc         1 37E       0.014200
     28 H8          -3.8340    -0.3200    -1.8290 hc         1 37E       0.018450
     29 H9          -4.4660     1.3020    -1.6360 hc         1 37E       0.018450
     30 H10         -2.5130     1.9250    -0.2210 hc         1 37E       0.048450
     31 H11         -1.9790     1.3270    -1.7820 hc         1 37E       0.048450
@<TRIPOS>BOND
     1     1     2 1   
     2     1     3 1   
     3     1    15 1   
     4     1    16 1   
     5     2     4 1   
     6     2    17 1   
     7     3     5 1   
     8     3     6 1   
     9     3    18 1   
    10     4    10 1   
    11     4    14 1   
    12     4    19 1   
    13     5    20 1   
    14     5    21 1   
    15     6     7 1   
    16     6     8 1   
    17     6     9 1   
    18    10    11 1   
    19    10    22 1   
    20    10    23 1   
    21    11    12 1   
    22    11    24 1   
    23    11    25 1   
    24    12    13 1   
    25    12    26 1   
    26    12    27 1   
    27    13    14 1   
    28    13    28 1   
    29    13    29 1   
    30    14    30 1   
    31    14    31 1   
@<TRIPOS>SUBSTRUCTURE
     1 37E         1 TEMP              0 ****  ****    0 ROOT
