@<TRIPOS>MOLECULE
37E
   31    31     1     0     0
SMALL
No Charge or Current Charge


@<TRIPOS>ATOM
      1 C1           0.7560     0.6700    -0.8280 c3         1 37E       0.178800
      2 N2          -0.2460     0.5840     0.2510 n7         1 37E      -0.907400
      3 C3           1.5720    -0.6470    -0.9810 c3         1 37E      -0.190500
      4 C5          -1.5630    -0.0380     0.0010 c6         1 37E       0.203500
      5 N10          0.7610    -1.7440    -1.6640 n8         1 37E      -0.963200
      6 P11          2.5450    -0.9430     0.6410 p5         1 37E       1.299500
      7 O11          1.5760    -0.8900     1.7780 o          1 37E      -0.924833
      8 O12          3.2000    -2.2850     0.5920 o          1 37E      -0.924833
      9 O13          3.5870     0.1150     0.7990 o          1 37E      -0.924833
     10 C19         -2.3080    -0.2300     1.3500 c6         1 37E      -0.082400
     11 C20         -3.7020    -0.8740     1.1450 c6         1 37E      -0.071400
     12 C21         -4.5630    -0.0420     0.1650 c6         1 37E      -0.069400
     13 C22         -3.8330     0.1600    -1.1850 c6         1 37E      -0.071400
     14 C23         -2.4360     0.7990    -0.9810 c6         1 37E      -0.082400
     15 H02          0.2950     0.9460    -1.7860 h1         1 37E       0.004700
     16 H03          1.4660     1.4700    -0.5800 h1         1 37E       0.004700
     17 H04          0.2330     0.0300     0.9930 hn         1 37E       0.500000
     18 H01          2.3830    -0.4150    -1.6840 h1         1 37E       0.033700
     19 H1          -1.4120    -1.0360    -0.4300 h1         1 37E      -0.001300
     20 H05          0.0140    -2.0390    -1.0270 hn         1 37E       0.347500
     21 H12          0.2570    -1.3470    -2.4640 hn         1 37E       0.347500
     22 H2          -1.7090    -0.8610     2.0200 hc         1 37E       0.048450
     23 H3          -2.4240     0.7400     1.8540 hc         1 37E       0.048450
     24 H4          -3.5840    -1.8960     0.7590 hc         1 37E       0.018450
     25 H5          -4.2180    -0.9620     2.1110 hc         1 37E       0.018450
     26 H6          -5.5260    -0.5430    -0.0030 hc         1 37E       0.014200
     27 H7          -4.7930     0.9350     0.6110 hc         1 37E       0.014200
     28 H8          -3.7250    -0.8080    -1.6940 hc         1 37E       0.018450
     29 H9          -4.4400     0.7940    -1.8450 hc         1 37E       0.018450
     30 H10         -2.5530     1.8220    -0.5970 hc         1 37E       0.048450
     31 H11         -1.9400     0.8850    -1.9560 hc         1 37E       0.048450
@<TRIPOS>BOND
     1     1     2 1   
     2     1     3 1   
     3     1    15 1   
     4     1    16 1   
     5     2     4 1   
     6     2    17 1   
     7     3     5 1   
     8     3     6 1   
     9     3    18 1   
    10     4    10 1   
    11     4    14 1   
    12     4    19 1   
    13     5    20 1   
    14     5    21 1   
    15     6     7 1   
    16     6     8 1   
    17     6     9 1   
    18    10    11 1   
    19    10    22 1   
    20    10    23 1   
    21    11    12 1   
    22    11    24 1   
    23    11    25 1   
    24    12    13 1   
    25    12    26 1   
    26    12    27 1   
    27    13    14 1   
    28    13    28 1   
    29    13    29 1   
    30    14    30 1   
    31    14    31 1   
@<TRIPOS>SUBSTRUCTURE
     1 37E         1 TEMP              0 ****  ****    0 ROOT
