@<TRIPOS>MOLECULE
37F
   61    65     1     0     0
SMALL
No Charge or Current Charge


@<TRIPOS>ATOM
      1 FAD          3.4610    -5.0370    -0.7220 f          1 37F      -0.101667
      2 CBK          2.6870    -3.9340    -0.5890 c3         1 37F       0.356200
      3 FAE          2.0950    -3.7550    -1.7920 f          1 37F      -0.101667
      4 FAF          1.7310    -4.2620     0.3110 f          1 37F      -0.101667
      5 CBE          3.4980    -2.7040    -0.1520 cc         1 37F      -0.064200
      6 CAP          4.8650    -2.8210     0.0870 cd         1 37F      -0.264200
      7 CBF          5.7450    -1.7270     0.4970 c          1 37F       0.552200
      8 OAC          6.9420    -1.8500     0.7000 o          1 37F      -0.525000
      9 NAX          5.1000    -0.5370     0.6350 ns         1 37F      -0.360100
     10 CAN          3.7540    -0.3190     0.4260 cd         1 37F       0.001600
     11 CBC          2.9080    -1.3610     0.0310 cc         1 37F      -0.241200
     12 CAY          1.4370    -1.0560    -0.1790 c          1 37F       0.633300
     13 OAB          0.5870    -1.8870    -0.4600 o          1 37F      -0.558100
     14 NAW          1.1120     0.2860    -0.0360 ns         1 37F      -0.142000
     15 CBB         -0.1110     1.0080    -0.1060 ca         1 37F      -0.016000
     16 CAO         -1.3830     0.3920    -0.1360 ca         1 37F      -0.116000
     17 CBD         -0.0200     2.4180    -0.1070 ca         1 37F       0.189000
     18 NBJ          1.2480     3.0480    -0.0780 nh         1 37F      -0.791400
     19 CAT          1.9480     3.3190    -1.3720 c6         1 37F       0.178300
     20 CAR          3.4710     3.6180    -1.1780 c6         1 37F       0.161800
     21 NBI          3.7260     4.7050    -0.1840 n3         1 37F      -0.714600
     22 CAA          5.1650     5.0060    -0.0230 c3         1 37F       0.151100
     23 CAS          3.0540     4.3820     1.1120 c6         1 37F       0.161800
     24 CAU          1.5250     4.1040     0.9450 c6         1 37F       0.178300
     25 CAJ         -1.1940     3.1890    -0.1520 ca         1 37F      -0.114000
     26 CAI         -2.4530     2.5700    -0.1910 ca         1 37F      -0.114000
     27 CAZ         -2.5740     1.1600    -0.1820 cp         1 37F      -0.010000
     28 CBA         -3.9180     0.5000    -0.2180 cp         1 37F      -0.092000
     29 CAQ         -5.0470     1.0800     0.4060 ca         1 37F      -0.052000
     30 CBG         -6.2880     0.4210     0.3430 ca         1 37F      -0.083000
     31 CAK         -7.4200     0.9860     0.9630 ca         1 37F      -0.091000
     32 CAG         -8.6580     0.3280     0.9000 ca         1 37F      -0.107000
     33 CAH         -8.7670    -0.8940     0.2180 ca         1 37F      -0.102000
     34 CAL         -7.6360    -1.4580    -0.4000 ca         1 37F      -0.081000
     35 CBH         -6.3850    -0.8130    -0.3480 ca         1 37F       0.270000
     36 NAV         -5.3130    -1.3770    -0.9490 nb         1 37F      -0.657000
     37 CAM         -4.1210    -0.7370    -0.8820 ca         1 37F       0.367900
     38 H1           5.3970    -3.7590    -0.0180 ha         1 37F       0.231000
     39 H2           3.4700     0.7130     0.6150 h4         1 37F       0.210000
     40 H4           1.8970     0.8950     0.1370 hn         1 37F       0.178000
     41 H5          -1.4670    -0.6880    -0.0970 ha         1 37F       0.154000
     42 H6           1.8440     2.4570    -2.0480 h1         1 37F       0.047200
     43 H7           1.4810     4.1810    -1.8710 h1         1 37F       0.047200
     44 H8           3.9690     2.6920    -0.8560 h1         1 37F       0.035950
     45 H9           3.9000     3.8880    -2.1540 h1         1 37F       0.035950
     46 H11          5.6120     5.2870    -0.9860 h1         1 37F       0.033700
     47 H12          5.3100     5.8420     0.6740 h1         1 37F       0.033700
     48 H13          5.7070     4.1340     0.3660 h1         1 37F       0.033700
     49 H14          3.5210     3.4950     1.5650 h1         1 37F       0.035950
     50 H15          3.1830     5.2100     1.8230 h1         1 37F       0.035950
     51 H16          1.0290     5.0430     0.6580 h1         1 37F       0.047200
     52 H17          1.1160     3.8020     1.9210 h1         1 37F       0.047200
     53 H18         -1.1300     4.2740    -0.1690 ha         1 37F       0.118000
     54 H19         -3.3420     3.1930    -0.2420 ha         1 37F       0.119000
     55 H20         -4.9580     2.0200     0.9440 ha         1 37F       0.119000
     56 H21         -7.3410     1.9330     1.4930 ha         1 37F       0.114000
     57 H22         -9.5320     0.7640     1.3790 ha         1 37F       0.115000
     58 H23         -9.7250    -1.4060     0.1680 ha         1 37F       0.116000
     59 H24         -7.7270    -2.4040    -0.9250 ha         1 37F       0.132000
     60 H25         -3.2950    -1.2300    -1.3940 h4         1 37F       0.027100
     61 H26          5.7000     0.2280     0.9220 hn         1 37F       0.335500
@<TRIPOS>BOND
     1     1     2 1   
     2     2     3 1   
     3     2     4 1   
     4     2     5 1   
     5     5     6 2   
     6     5    11 1   
     7     6     7 1   
     8     6    38 1   
     9     7     8 2   
    10     7     9 1   
    11     9    10 1   
    12     9    61 1   
    13    10    11 2   
    14    10    39 1   
    15    11    12 1   
    16    12    13 2   
    17    12    14 1   
    18    14    15 1   
    19    14    40 1   
    20    15    16 ar  
    21    15    17 ar  
    22    16    27 ar  
    23    16    41 1   
    24    17    18 1   
    25    17    25 ar  
    26    18    19 1   
    27    18    24 1   
    28    19    20 1   
    29    19    42 1   
    30    19    43 1   
    31    20    21 1   
    32    20    44 1   
    33    20    45 1   
    34    21    22 1   
    35    21    23 1   
    36    22    46 1   
    37    22    47 1   
    38    22    48 1   
    39    23    24 1   
    40    23    49 1   
    41    23    50 1   
    42    24    51 1   
    43    24    52 1   
    44    25    26 ar  
    45    25    53 1   
    46    26    27 ar  
    47    26    54 1   
    48    27    28 1   
    49    28    29 ar  
    50    28    37 ar  
    51    29    30 ar  
    52    29    55 1   
    53    30    31 ar  
    54    30    35 ar  
    55    31    32 ar  
    56    31    56 1   
    57    32    33 ar  
    58    32    57 1   
    59    33    34 ar  
    60    33    58 1   
    61    34    35 ar  
    62    34    59 1   
    63    35    36 ar  
    64    36    37 ar  
    65    37    60 1   
@<TRIPOS>SUBSTRUCTURE
     1 37F         1 TEMP              0 ****  ****    0 ROOT
