@<TRIPOS>MOLECULE
37F
   61    65     1     0     0
SMALL
abcg2


@<TRIPOS>ATOM
      1 FAD          3.3860    -4.3140    -1.4480 f          1 37F      -0.101667
      2 CBK          2.6090    -3.4850    -0.7500 c3         1 37F       0.356200
      3 FAE          1.8200    -2.8610    -1.6300 f          1 37F      -0.101667
      4 FAF          1.8380    -4.2410     0.0330 f          1 37F      -0.101667
      5 CBE          3.4200    -2.4970     0.0520 cc         1 37F      -0.064200
      6 CAP          4.7270    -2.7650     0.2860 cd         1 37F      -0.264200
      7 CBF          5.5730    -1.8650     1.0380 c          1 37F       0.552200
      8 OAC          6.7500    -2.0590     1.2960 o          1 37F      -0.525000
      9 NAX          4.9260    -0.7180     1.4550 ns         1 37F      -0.360100
     10 CAN          3.6350    -0.4360     1.2150 cd         1 37F       0.001600
     11 CBC          2.8270    -1.2840     0.5230 cc         1 37F      -0.241200
     12 CAY          1.3740    -0.9620     0.4040 c          1 37F       0.633300
     13 OAB          0.5140    -1.7550     0.7380 o          1 37F      -0.558100
     14 NAW          1.1390     0.2850    -0.0640 ns         1 37F      -0.142000
     15 CBB         -0.0690     0.9730    -0.1880 ca         1 37F      -0.016000
     16 CAO         -1.3240     0.3790    -0.1370 ca         1 37F      -0.116000
     17 CBD          0.0470     2.3570    -0.4180 ca         1 37F       0.189000
     18 NBJ          1.3480     2.9060    -0.4430 nh         1 37F      -0.791400
     19 CAT          1.5760     3.9900    -1.3840 c6         1 37F       0.178300
     20 CAR          3.0630     4.2810    -1.4660 c6         1 37F       0.161800
     21 NBI          3.5890     4.6280    -0.1620 n3         1 37F      -0.714600
     22 CAA          4.9890     4.9800    -0.2280 c3         1 37F       0.151100
     23 CAS          3.3480     3.5600     0.7830 c6         1 37F       0.161800
     24 CAU          1.8670     3.2490     0.8790 c6         1 37F       0.178300
     25 CAJ         -1.1060     3.1020    -0.6190 ca         1 37F      -0.114000
     26 CAI         -2.3570     2.5050    -0.5800 ca         1 37F      -0.114000
     27 CAZ         -2.4770     1.1420    -0.3270 cp         1 37F      -0.010000
     28 CBA         -3.8030     0.5030    -0.2750 cp         1 37F      -0.092000
     29 CAQ         -4.8940     1.1230     0.2800 ca         1 37F      -0.052000
     30 CBG         -6.1440     0.4740     0.2950 ca         1 37F      -0.083000
     31 CAK         -7.3020     1.0580     0.8570 ca         1 37F      -0.091000
     32 CAG         -8.4910     0.3800     0.8460 ca         1 37F      -0.107000
     33 CAH         -8.5710    -0.9080     0.2740 ca         1 37F      -0.102000
     34 CAL         -7.4630    -1.4980    -0.2740 ca         1 37F      -0.081000
     35 CBH         -6.2240    -0.8200    -0.2750 ca         1 37F       0.270000
     36 NAV         -5.1430    -1.4270    -0.8230 nb         1 37F      -0.657000
     37 CAM         -4.0040    -0.7940    -0.8170 ca         1 37F       0.367900
     38 H1           5.2020    -3.6620    -0.0850 ha         1 37F       0.231000
     39 H2           3.2790     0.4930     1.6390 h4         1 37F       0.210000
     40 H4           1.9260     0.8320    -0.3960 hn         1 37F       0.178000
     41 H5          -1.4100    -0.6800     0.0520 ha         1 37F       0.154000
     42 H6           1.2070     3.6950    -2.3670 h1         1 37F       0.047200
     43 H7           1.0500     4.9100    -1.0910 h1         1 37F       0.047200
     44 H8           3.5810     3.4070    -1.8980 h1         1 37F       0.035950
     45 H9           3.2200     5.1190    -2.1500 h1         1 37F       0.035950
     46 H11          5.1310     5.8210    -0.9090 h1         1 37F       0.033700
     47 H12          5.3460     5.2820     0.7580 h1         1 37F       0.033700
     48 H13          5.6270     4.1540    -0.5790 h1         1 37F       0.033700
     49 H14          3.8930     2.6400     0.5000 h1         1 37F       0.035950
     50 H15          3.7150     3.8580     1.7680 h1         1 37F       0.035950
     51 H16          1.3290     4.1100     1.3000 h1         1 37F       0.047200
     52 H17          1.7150     2.4110     1.5630 h1         1 37F       0.047200
     53 H18         -1.0320     4.1640    -0.8090 ha         1 37F       0.118000
     54 H19         -3.2380     3.1070    -0.7600 ha         1 37F       0.119000
     55 H20         -4.8050     2.1070     0.7260 ha         1 37F       0.119000
     56 H21         -7.2350     2.0470     1.2950 ha         1 37F       0.114000
     57 H22         -9.3760     0.8290     1.2740 ha         1 37F       0.115000
     58 H23         -9.5180    -1.4300     0.2690 ha         1 37F       0.116000
     59 H24         -7.5150    -2.4850    -0.7160 ha         1 37F       0.132000
     60 H25         -3.1670    -1.3070    -1.2820 h4         1 37F       0.027100
     61 H26          5.4690    -0.0560     1.9950 hn         1 37F       0.335500
@<TRIPOS>BOND
     1     1     2 1   
     2     2     3 1   
     3     2     4 1   
     4     2     5 1   
     5     5     6 2   
     6     5    11 1   
     7     6     7 1   
     8     6    38 1   
     9     7     8 2   
    10     7     9 1   
    11     9    10 1   
    12     9    61 1   
    13    10    11 2   
    14    10    39 1   
    15    11    12 1   
    16    12    13 2   
    17    12    14 1   
    18    14    15 1   
    19    14    40 1   
    20    15    16 ar  
    21    15    17 ar  
    22    16    27 ar  
    23    16    41 1   
    24    17    18 1   
    25    17    25 ar  
    26    18    19 1   
    27    18    24 1   
    28    19    20 1   
    29    19    42 1   
    30    19    43 1   
    31    20    21 1   
    32    20    44 1   
    33    20    45 1   
    34    21    22 1   
    35    21    23 1   
    36    22    46 1   
    37    22    47 1   
    38    22    48 1   
    39    23    24 1   
    40    23    49 1   
    41    23    50 1   
    42    24    51 1   
    43    24    52 1   
    44    25    26 ar  
    45    25    53 1   
    46    26    27 ar  
    47    26    54 1   
    48    27    28 1   
    49    28    29 ar  
    50    28    37 ar  
    51    29    30 ar  
    52    29    55 1   
    53    30    31 ar  
    54    30    35 ar  
    55    31    32 ar  
    56    31    56 1   
    57    32    33 ar  
    58    32    57 1   
    59    33    34 ar  
    60    33    58 1   
    61    34    35 ar  
    62    34    59 1   
    63    35    36 ar  
    64    36    37 ar  
    65    37    60 1   
@<TRIPOS>SUBSTRUCTURE
     1 37F         1 TEMP              0 ****  ****    0 ROOT
