@<TRIPOS>MOLECULE
37G
   57    61     1     0     0
SMALL
bcc


@<TRIPOS>ATOM
      1 C13          1.6160     0.0110    -1.3440 ca         1 37G      -0.096000
      2 C15          1.7800    -0.8120     0.8880 ca         1 37G      -0.096000
      3 C17          3.8190     0.1890    -0.1600 cp         1 37G      -0.053000
      4 C20          6.5150     1.0050    -0.0980 ca         1 37G      -0.054800
      5 C21          7.9290     1.1020     0.1300 cc         1 37G      -0.165400
      6 C22          8.2660    -0.0030     0.8680 cd         1 37G      -0.113100
      7 C24          6.0730    -0.1780     0.5340 ca         1 37G      -0.079200
      8 C26          8.8770     2.1660    -0.3230 c          1 37G       0.941800
      9 C01         -5.7190    -3.8670     2.2070 c3         1 37G      -0.087100
     10 C03         -5.4580    -4.6740    -0.1760 c3         1 37G      -0.087100
     11 C04         -4.8110    -2.3480     0.4570 cc         1 37G       0.310000
     12 O05         -5.9300    -1.7580     0.0200 os         1 37G      -0.117100
     13 N06         -5.6760    -0.4720    -0.3470 nc         1 37G      -0.340300
     14 C07         -4.4120    -0.2860    -0.1240 cd         1 37G       0.412800
     15 C08         -3.7940    -1.4540     0.3940 cd         1 37G      -0.332900
     16 C09         -2.3630    -1.5790     0.7600 c3         1 37G       0.223700
     17 C11         -0.3150    -0.9570    -0.2820 ca         1 37G       0.113100
     18 C12          0.2830    -0.3520    -1.3870 ca         1 37G      -0.189000
     19 C14          2.3970    -0.2070    -0.2040 cp         1 37G      -0.024000
     20 C16          0.4440    -1.1880     0.8610 ca         1 37G      -0.189000
     21 C18          4.2490     1.3730    -0.7960 ca         1 37G      -0.184000
     22 C19          5.5660     1.7840    -0.7710 ca         1 37G      -0.046000
     23 N23          7.1650    -0.7650     1.1090 na         1 37G      -0.195400
     24 C25          4.7460    -0.5970     0.5120 ca         1 37G      -0.148000
     25 O27          8.3860     3.1200    -0.9650 o          1 37G      -0.835300
     26 O28         10.0800     2.0150    -0.0220 o          1 37G      -0.835300
     27 C29         -3.7510     1.0000    -0.4000 ca         1 37G      -0.119500
     28 C30         -3.2800     1.3190    -1.6710 ca         1 37G       0.061400
     29 CL31        -3.5010     0.1940    -2.9610 cl         1 37G      -0.092900
     30 C32         -2.6230     2.5110    -1.9260 ca         1 37G      -0.123000
     31 C33         -2.4250     3.4080    -0.8880 ca         1 37G      -0.097000
     32 C34         -2.8700     3.1200     0.3920 ca         1 37G      -0.123000
     33 C35         -3.5230     1.9200     0.6190 ca         1 37G       0.061400
     34 CL36        -4.0600     1.5450     2.2200 cl         1 37G      -0.092900
     35 H13          2.0580     0.4650    -2.2220 ha         1 37G       0.135000
     36 H15          2.3430    -0.9830     1.7980 ha         1 37G       0.135000
     37 H22          9.2300    -0.3030     1.2460 h4         1 37G       0.165000
     38 H01         -5.7090    -4.8970     2.5650 hc         1 37G       0.042700
     39 H01A        -5.3080    -3.2360     2.9940 hc         1 37G       0.042700
     40 H01B        -6.7580    -3.5790     2.0460 hc         1 37G       0.042700
     41 H02         -3.8780    -4.0760     1.1400 hc         1 37G       0.065700
     42 H03         -4.8610    -4.6200    -1.0870 hc         1 37G       0.042700
     43 H03A        -5.4470    -5.7080     0.1680 hc         1 37G       0.042700
     44 H03B        -6.4880    -4.4180    -0.4250 hc         1 37G       0.042700
     45 H09         -2.1200    -0.8640     1.5530 h1         1 37G       0.044200
     46 H09A        -2.1370    -2.5790     1.1420 h1         1 37G       0.044200
     47 H12         -0.3050    -0.1720    -2.2780 ha         1 37G       0.129500
     48 H16          0.0180    -1.6560     1.7380 ha         1 37G       0.129500
     49 H18          3.5180     1.9930    -1.3010 ha         1 37G       0.110000
     50 H19          5.8640     2.7010    -1.2590 ha         1 37G       0.166000
     51 HN23         7.1600    -1.6220     1.6370 hn         1 37G       0.272700
     52 H25          4.4510    -1.5240     0.9870 ha         1 37G       0.110000
     53 H32         -2.2690     2.7360    -2.9220 ha         1 37G       0.153500
     54 H33         -1.9140     4.3410    -1.0800 ha         1 37G       0.144000
     55 H34         -2.7110     3.8170     1.2020 ha         1 37G       0.153500
     56 O10         -1.6160    -1.2890    -0.4100 os         1 37G      -0.323900
     57 C02         -4.9010    -3.7610     0.9170 c3         1 37G      -0.099000
@<TRIPOS>BOND
     1     1    18 ar  
     2     1    19 ar  
     3     1    35 1   
     4     2    19 ar  
     5     2    20 ar  
     6     2    36 1   
     7     3    19 1   
     8     3    21 ar  
     9     3    24 ar  
    10     4     5 1   
    11     4     7 ar  
    12     4    22 ar  
    13     5     6 2   
    14     5     8 1   
    15     6    23 1   
    16     6    37 1   
    17     7    23 1   
    18     7    24 ar  
    19     8    25 1   
    20     8    26 1   
    21     9    38 1   
    22     9    39 1   
    23     9    40 1   
    24     9    57 1   
    25    10    42 1   
    26    10    43 1   
    27    10    44 1   
    28    10    57 1   
    29    11    12 1   
    30    11    15 2   
    31    11    57 1   
    32    12    13 1   
    33    13    14 2   
    34    14    15 1   
    35    14    27 1   
    36    15    16 1   
    37    16    45 1   
    38    16    46 1   
    39    16    56 1   
    40    17    18 ar  
    41    17    20 ar  
    42    17    56 1   
    43    18    47 1   
    44    20    48 1   
    45    21    22 ar  
    46    21    49 1   
    47    22    50 1   
    48    23    51 1   
    49    24    52 1   
    50    27    28 ar  
    51    27    33 ar  
    52    28    29 1   
    53    28    30 ar  
    54    30    31 ar  
    55    30    53 1   
    56    31    32 ar  
    57    31    54 1   
    58    32    33 ar  
    59    32    55 1   
    60    33    34 1   
    61    41    57 1   
@<TRIPOS>SUBSTRUCTURE
     1 37G         1 TEMP              0 ****  ****    0 ROOT
