@<TRIPOS>MOLECULE
37G
   57    61     1     0     0
SMALL
No Charge or Current Charge


@<TRIPOS>ATOM
      1 C13          1.6770     0.1260    -1.3590 ca         1 37G      -0.078000
      2 C15          1.7810    -0.5860     0.9590 ca         1 37G      -0.078000
      3 C17          3.9190     0.2040    -0.1650 cp         1 37G      -0.053000
      4 C20          6.6820     0.7540    -0.1220 ca         1 37G      -0.054800
      5 C21          8.1070     0.7760     0.1020 cc         1 37G      -0.165400
      6 C22          8.3870    -0.2810     0.9690 cd         1 37G      -0.163100
      7 C24          6.1790    -0.2910     0.6050 ca         1 37G      -0.079200
      8 C26          9.1280     1.7130    -0.4510 c          1 37G       0.731200
      9 C01         -5.6130    -4.0830     2.1310 c3         1 37G      -0.087100
     10 C03         -4.8670    -4.8030    -0.2060 c3         1 37G      -0.087100
     11 C04         -4.8050    -2.3660     0.4600 cc         1 37G       0.200300
     12 O05         -6.0170    -1.9410    -0.0320 os         1 37G      -0.072700
     13 N06         -5.8960    -0.5620    -0.4240 nc         1 37G      -0.340300
     14 C07         -4.6410    -0.2580    -0.1460 cd         1 37G       0.347500
     15 C08         -3.9170    -1.3330     0.4040 cd         1 37G      -0.202300
     16 C09         -2.4730    -1.3000     0.8200 c3         1 37G       0.246900
     17 C11         -0.3450    -0.6400    -0.2350 ca         1 37G       0.113100
     18 C12          0.2990    -0.1480    -1.3790 ca         1 37G      -0.171000
     19 C14          2.4490    -0.0870    -0.1880 cp         1 37G      -0.024000
     20 C16          0.4020    -0.8600     0.9420 ca         1 37G      -0.171000
     21 C18          4.4660     1.2880    -0.9150 ca         1 37G      -0.166000
     22 C19          5.8480     1.5720    -0.8990 ca         1 37G      -0.028000
     23 N23          7.1840    -0.9550     1.2880 na         1 37G      -0.245700
     24 C25          4.8110    -0.5920     0.6070 ca         1 37G      -0.130000
     25 O27          8.7770     2.6080    -1.2050 o          1 37G      -0.730000
     26 O28         10.2980     1.5520    -0.1300 o          1 37G      -0.730000
     27 C29         -4.1110     1.0830    -0.4050 ca         1 37G      -0.119500
     28 C30         -3.6800     1.4430    -1.6990 ca         1 37G       0.153000
     29 Cl31        -3.8060     0.3090    -3.0440 cl         1 37G      -0.184500
     30 C32         -3.1270     2.7130    -1.9340 ca         1 37G      -0.105000
     31 C33         -2.9910     3.6310    -0.8800 ca         1 37G      -0.079000
     32 C34         -3.4040     3.2720     0.4140 ca         1 37G      -0.105000
     33 C35         -3.9560     2.0020     0.6520 ca         1 37G       0.153000
     34 Cl36        -4.4530     1.5830     2.2910 cl         1 37G      -0.184500
     35 H13          2.1540     0.4950    -2.2640 ha         1 37G       0.117000
     36 H15          2.3370    -0.7500     1.8790 ha         1 37G       0.117000
     37 H22          9.3470    -0.5940     1.3730 h4         1 37G       0.215000
     38 H01         -5.4540    -5.0980     2.5140 hc         1 37G       0.042700
     39 H01A        -5.4300    -3.3780     2.9520 hc         1 37G       0.042700
     40 H01B        -6.6630    -3.9910     1.8290 hc         1 37G       0.042700
     41 H02         -3.6460    -3.9330     1.3150 hc         1 37G       0.065700
     42 H03         -4.1600    -4.6040    -1.0210 hc         1 37G       0.042700
     43 H03A        -4.7010    -5.8280     0.1450 hc         1 37G       0.042700
     44 H03B        -5.8840    -4.7400    -0.6120 hc         1 37G       0.042700
     45 H09         -2.3600    -0.5900     1.6490 h1         1 37G       0.044200
     46 H09A        -2.1490    -2.2900     1.1650 h1         1 37G       0.044200
     47 H12         -0.2740     0.0210    -2.2880 ha         1 37G       0.111500
     48 H16         -0.0650    -1.2390     1.8460 ha         1 37G       0.111500
     49 H18          3.8110     1.9250    -1.5030 ha         1 37G       0.092000
     50 H19          6.2460     2.4030    -1.4740 ha         1 37G       0.148000
     51 HN23         7.0780    -1.7620     1.8950 hn         1 37G       0.323000
     52 H25          4.4440    -1.4370     1.1840 ha         1 37G       0.092000
     53 H32         -2.7990     2.9820    -2.9350 ha         1 37G       0.135500
     54 H33         -2.5610     4.6130    -1.0630 ha         1 37G       0.126000
     55 H34         -3.2940     3.9760     1.2350 ha         1 37G       0.135500
     56 O10         -1.6980    -0.8830    -0.3140 os         1 37G      -0.347100
     57 C02         -4.6680    -3.7910     0.9440 c3         1 37G      -0.099000
@<TRIPOS>BOND
     1     1    18 ar  
     2     1    19 ar  
     3     1    35 1   
     4     2    19 ar  
     5     2    20 ar  
     6     2    36 1   
     7     3    19 1   
     8     3    21 ar  
     9     3    24 ar  
    10     4     5 1   
    11     4     7 ar  
    12     4    22 ar  
    13     5     6 2   
    14     5     8 1   
    15     6    23 1   
    16     6    37 1   
    17     7    23 1   
    18     7    24 ar  
    19     8    25 1   
    20     8    26 1   
    21     9    38 1   
    22     9    39 1   
    23     9    40 1   
    24     9    57 1   
    25    10    42 1   
    26    10    43 1   
    27    10    44 1   
    28    10    57 1   
    29    11    12 1   
    30    11    15 2   
    31    11    57 1   
    32    12    13 1   
    33    13    14 2   
    34    14    15 1   
    35    14    27 1   
    36    15    16 1   
    37    16    45 1   
    38    16    46 1   
    39    16    56 1   
    40    17    18 ar  
    41    17    20 ar  
    42    17    56 1   
    43    18    47 1   
    44    20    48 1   
    45    21    22 ar  
    46    21    49 1   
    47    22    50 1   
    48    23    51 1   
    49    24    52 1   
    50    27    28 ar  
    51    27    33 ar  
    52    28    29 1   
    53    28    30 ar  
    54    30    31 ar  
    55    30    53 1   
    56    31    32 ar  
    57    31    54 1   
    58    32    33 ar  
    59    32    55 1   
    60    33    34 1   
    61    41    57 1   
@<TRIPOS>SUBSTRUCTURE
     1 37G         1 TEMP              0 ****  ****    0 ROOT
