@<TRIPOS>MOLECULE
37I
   47    50     1     0     0
SMALL
No Charge or Current Charge


@<TRIPOS>ATOM
      1 C12        -99.3170   105.5770    30.7500 cc         1 37I       0.317900
      2 C13        -99.3640   107.0020    31.1090 ca         1 37I      -0.001900
      3 C14        100.5730   107.7220    31.2600 ca         1 37I       0.007000
      4 C16       -100.5020   109.1060    31.5590 ca         1 37I       0.634900
      5 C20        -98.2060   109.1030    31.5450 ca         1 37I       0.386900
      6 C21        -98.1660   107.7330    31.2500 ca         1 37I      -0.198000
      7 C22        -98.4340   104.6140    31.3850 ca         1 37I       0.110700
      8 N23        -97.5510   104.7870    32.4040 nb         1 37I      -0.540000
      9 C24        -96.9000   103.6360    32.7450 ca         1 37I       0.217900
     10 C02        -95.1450    98.6050    33.1540 c6         1 37I       0.176200
     11 C03        -93.6300    98.8120    32.8510 c3         1 37I      -0.084100
     12 C04        -96.0160    98.7490    31.8810 c6         1 37I      -0.117400
     13 C05        -96.0510   100.2040    31.3550 c6         1 37I       0.217800
     14 C07        -97.1390   102.3750    32.0830 ca         1 37I       0.612900
     15 C09        -98.6770   103.4110    30.7460 ca         1 37I       0.386500
     16 C18       -101.7240   111.3140    32.0590 c3         1 37I       0.231100
     17 C25        -95.7040   101.0590    33.6890 c6         1 37I       0.217800
     18 C26        -95.6660    99.6040    34.2170 c6         1 37I      -0.117400
     19 N01        -95.2990    97.2380    33.6770 n8         1 37I      -0.989200
     20 N06        -96.4860   101.1610    32.4220 nh         1 37I      -0.765300
     21 N08        -98.0420   102.2610    31.0700 nb         1 37I      -0.755000
     22 N10        -99.6410   103.6810    29.7980 na         1 37I      -0.157100
     23 N11        100.0570   105.0210    29.7760 nd         1 37I      -0.486100
     24 N17       -101.6400   109.8760    31.7400 nu         1 37I      -0.940100
     25 N19        -99.3570   109.7880    31.6990 nb         1 37I      -0.749000
     26 Cl15      -102.1560   106.9200    31.1510 cl         1 37I      -0.193000
     27 H1         -97.2840   109.6730    31.6560 h4         1 37I       0.019100
     28 H2         -97.2010   107.2500    31.1240 ha         1 37I       0.138000
     29 H3         -96.1730   103.7250    33.5490 h4         1 37I       0.029100
     30 H4         -93.0220    98.6870    33.7560 hc         1 37I       0.039700
     31 H5         -93.2690    98.0880    32.1110 hc         1 37I       0.039700
     32 H6         -93.4160    99.8110    32.4560 hc         1 37I       0.039700
     33 H7         -97.0470    98.4320    32.0920 hc         1 37I       0.055450
     34 H8         -95.6460    98.0860    31.0860 hc         1 37I       0.055450
     35 H9         -95.0570   100.4870    30.9800 h1         1 37I       0.062950
     36 H10        -96.7290   100.2260    30.4900 h1         1 37I       0.062950
     37 H11        102.7730   111.6290    32.1380 h1         1 37I       0.039033
     38 H12       -101.2270   111.5270    33.0160 h1         1 37I       0.039033
     39 H13        101.2430   111.9130    31.2740 h1         1 37I       0.039033
     40 H14        -94.6790   101.4280    33.5360 h1         1 37I       0.062950
     41 H15        -96.1580   101.6810    34.4750 h1         1 37I       0.062950
     42 H16        -96.6820    99.3220    34.5290 hc         1 37I       0.055450
     43 H17        -95.0430    99.5620    35.1200 hc         1 37I       0.055450
     44 H18        -95.7580    97.2890    34.5920 hn         1 37I       0.394500
     45 H19        -95.9810    96.7410    33.0940 hn         1 37I       0.394500
     46 H21       -100.0300   102.9900    29.1630 hn         1 37I       0.388000
     47 H22        102.5140   109.3600    31.6390 hn         1 37I       0.505000
@<TRIPOS>BOND
     1     1     2 1   
     2     1     7 1   
     3     1    23 2   
     4     2     3 ar  
     5     2     6 ar  
     6     3     4 ar  
     7     3    26 1   
     8     4    24 1   
     9     4    25 ar  
    10     5     6 ar  
    11     5    25 ar  
    12     5    27 1   
    13     6    28 1   
    14     7     8 ar  
    15     7    15 ar  
    16     8     9 ar  
    17     9    14 ar  
    18     9    29 1   
    19    10    11 1   
    20    10    12 1   
    21    10    18 1   
    22    10    19 1   
    23    11    30 1   
    24    11    31 1   
    25    11    32 1   
    26    12    13 1   
    27    12    33 1   
    28    12    34 1   
    29    13    20 1   
    30    13    35 1   
    31    13    36 1   
    32    14    20 1   
    33    14    21 ar  
    34    15    21 ar  
    35    15    22 1   
    36    16    24 1   
    37    16    37 1   
    38    16    38 1   
    39    16    39 1   
    40    17    18 1   
    41    17    20 1   
    42    17    40 1   
    43    17    41 1   
    44    18    42 1   
    45    18    43 1   
    46    19    44 1   
    47    19    45 1   
    48    22    23 1   
    49    22    46 1   
    50    24    47 1   
@<TRIPOS>SUBSTRUCTURE
     1 37I         1 TEMP              0 ****  ****    0 ROOT
