@<TRIPOS>MOLECULE
37I
   47    50     1     0     0
SMALL
abcg2


@<TRIPOS>ATOM
      1 C12        -98.9600   105.5280    30.7540 cc         1 37I       0.317900
      2 C13        -99.2620   106.9000    31.1700 ca         1 37I      -0.001900
      3 C14       -100.5410   107.4000    31.3190 ca         1 37I       0.007000
      4 C16       -100.7360   108.7450    31.7270 ca         1 37I       0.634900
      5 C20        -98.4690   109.0480    31.8450 ca         1 37I       0.386900
      6 C21        -98.1900   107.7600    31.4520 ca         1 37I      -0.198000
      7 C22        -97.9590   104.6690    31.2860 ca         1 37I       0.110700
      8 N23        -97.0660   104.7660    32.2800 nb         1 37I      -0.540000
      9 C24        -96.3070   103.7250    32.4710 ca         1 37I       0.217900
     10 C02        -95.7500    98.9300    33.2980 c6         1 37I       0.176200
     11 C03        -94.4560    98.1440    33.0890 c3         1 37I      -0.084100
     12 C04        -96.4390    99.2040    31.9540 c6         1 37I      -0.117400
     13 C05        -95.7030   100.2470    31.1200 c6         1 37I       0.217800
     14 C07        -96.3970   102.5180    31.6750 ca         1 37I       0.612900
     15 C09        -98.0480   103.4980    30.5330 ca         1 37I       0.386500
     16 C18       -102.1930   110.6340    32.2670 c3         1 37I       0.231100
     17 C25        -94.7660   101.2840    33.0770 c6         1 37I       0.217800
     18 C26        -95.4580   100.2760    33.9890 c6         1 37I      -0.117400
     19 N01        -96.6410    98.0860    34.0900 n8         1 37I      -0.989200
     20 N06        -95.5450   101.4840    31.8660 nh         1 37I      -0.765300
     21 N08        -97.2990   102.4180    30.7040 nb         1 37I      -0.755000
     22 N10        -99.0370   103.7060    29.6420 na         1 37I      -0.157100
     23 N11        -99.5840   104.9210    29.7700 nd         1 37I      -0.486100
     24 N17       -101.9690   109.2630    31.8870 nu         1 37I      -0.940100
     25 N19        -99.6970   109.5360    31.9770 nb         1 37I      -0.749000
     26 CL15      -101.9430   106.4150    31.0720 cl         1 37I      -0.193000
     27 H1         -97.6590   109.7350    32.0640 h4         1 37I       0.019100
     28 H2         -97.1700   107.4230    31.3460 ha         1 37I       0.138000
     29 H3         -95.5830   103.8050    33.2690 h4         1 37I       0.029100
     30 H4         -93.9880    97.9150    34.0490 hc         1 37I       0.039700
     31 H5         -94.6630    97.2000    32.5830 hc         1 37I       0.039700
     32 H6         -93.7210    98.6860    32.4940 hc         1 37I       0.039700
     33 H7         -97.4600    99.5590    32.1340 hc         1 37I       0.055450
     34 H8         -96.5220    98.2740    31.3860 hc         1 37I       0.055450
     35 H9         -94.7030    99.8910    30.8570 h1         1 37I       0.062950
     36 H10        -96.2290   100.4410    30.1900 h1         1 37I       0.062950
     37 H11       -103.2660   110.7960    32.3230 h1         1 37I       0.039033
     38 H12       -101.7600   110.8610    33.2420 h1         1 37I       0.039033
     39 H13       -101.7770   111.3370    31.5430 h1         1 37I       0.039033
     40 H14        -93.7770   100.9260    32.7800 h1         1 37I       0.062950
     41 H15        -94.5980   102.2190    33.6030 h1         1 37I       0.062950
     42 H16        -96.4030   100.7120    34.3320 hc         1 37I       0.055450
     43 H17        -94.8440   100.1100    34.8800 hc         1 37I       0.055450
     44 H18        -96.2080    97.8900    34.9860 hn         1 37I       0.394500
     45 H19        -97.4890    98.6000    34.3050 hn         1 37I       0.394500
     46 H21        -99.3700   103.0800    28.9260 hn         1 37I       0.388000
     47 H22       -102.7670   108.7030    31.6470 hn         1 37I       0.505000
@<TRIPOS>BOND
     1     1     2 1   
     2     1     7 1   
     3     1    23 2   
     4     2     3 ar  
     5     2     6 ar  
     6     3     4 ar  
     7     3    26 1   
     8     4    24 1   
     9     4    25 ar  
    10     5     6 ar  
    11     5    25 ar  
    12     5    27 1   
    13     6    28 1   
    14     7     8 ar  
    15     7    15 ar  
    16     8     9 ar  
    17     9    14 ar  
    18     9    29 1   
    19    10    11 1   
    20    10    12 1   
    21    10    18 1   
    22    10    19 1   
    23    11    30 1   
    24    11    31 1   
    25    11    32 1   
    26    12    13 1   
    27    12    33 1   
    28    12    34 1   
    29    13    20 1   
    30    13    35 1   
    31    13    36 1   
    32    14    20 1   
    33    14    21 ar  
    34    15    21 ar  
    35    15    22 1   
    36    16    24 1   
    37    16    37 1   
    38    16    38 1   
    39    16    39 1   
    40    17    18 1   
    41    17    20 1   
    42    17    40 1   
    43    17    41 1   
    44    18    42 1   
    45    18    43 1   
    46    19    44 1   
    47    19    45 1   
    48    22    23 1   
    49    22    46 1   
    50    24    47 1   
@<TRIPOS>SUBSTRUCTURE
     1 37I         1 TEMP              0 ****  ****    0 ROOT
