@<TRIPOS>MOLECULE
37J
   46    49     1     0     0
SMALL
abcg2


@<TRIPOS>ATOM
      1 N1           0.7830    -0.4480     0.5420 nc         1 37J      -0.710000
      2 C2           0.0060    -1.5550     0.7330 cc         1 37J       0.232500
      3 O2           4.7310    -1.1580     1.0750 o          1 37J      -0.541100
      4 N3          -4.2540    -0.7260     0.1200 na         1 37J      -0.314600
      5 C4          -1.4570    -1.4770     0.5670 c          1 37J       0.555600
      6 N4          -3.5470     1.3440    -0.3160 nc         1 37J      -0.630100
      7 C5           4.3360    -0.0430     0.7990 c          1 37J       0.622700
      8 C6           5.2290     1.1390     0.6680 ca         1 37J      -0.148600
      9 F6          -9.7870     1.2340     0.1390 f          1 37J      -0.115667
     10 F4          -9.3920    -0.8430    -0.2570 f          1 37J      -0.115667
     11 F5          -9.5330     0.5580    -1.8830 f          1 37J      -0.115667
     12 C14         -7.6060     0.6730    -0.5410 ca         1 37J      -0.195300
     13 C15         -6.7200    -0.3420    -0.2090 ca         1 37J      -0.046000
     14 C16         -5.3800     0.0030    -0.1650 ca         1 37J      -0.096200
     15 C19         -3.2080     0.1260     0.0120 cd         1 37J       0.503400
     16 C17         -4.9110     1.2990    -0.4360 ca         1 37J       0.118400
     17 C18         -5.8200     2.3030    -0.7670 ca         1 37J      -0.067000
     18 C13         -7.1610     1.9760    -0.8170 ca         1 37J      -0.085000
     19 N5          -1.9040    -0.2370     0.2240 ns         1 37J      -0.396400
     20 O1          -2.1850    -2.4390     0.7270 o          1 37J      -0.593100
     21 C3           2.0270    -0.7290     0.7380 cd         1 37J       0.536300
     22 S            2.3500    -2.3780     1.1690 ss         1 37J       0.122600
     23 C1           0.6690    -2.6880     1.0770 cd         1 37J      -0.243000
     24 N2           3.0130     0.2160     0.6090 ns         1 37J      -0.465400
     25 C11          4.9120     2.3320     1.3140 ca         1 37J      -0.076000
     26 C10          5.7770     3.4140     1.2610 ca         1 37J      -0.103000
     27 C9           6.9660     3.3150     0.5560 ca         1 37J      -0.074000
     28 C8           7.2940     2.1370    -0.1020 ca         1 37J      -0.105000
     29 C7           6.4280     1.0620    -0.0360 ca         1 37J       0.144100
     30 O3           6.7820    -0.1190    -0.6660 os         1 37J      -0.390100
     31 C12          6.3860    -0.2940    -1.9350 c3         1 37J       0.516000
     32 F1           6.7800    -1.4960    -2.3160 f          1 37J      -0.105000
     33 F2           5.0590    -0.2190    -2.0700 f          1 37J      -0.105000
     34 F3           6.9080     0.6070    -2.7660 f          1 37J      -0.105000
     35 H1          -4.1920    -1.7050     0.3570 hn         1 37J       0.391000
     36 H3          -7.0440    -1.3490     0.0090 ha         1 37J       0.136000
     37 H4          -5.4860     3.3090    -0.9800 ha         1 37J       0.135000
     38 H5          -7.8750     2.7480    -1.0720 ha         1 37J       0.127000
     39 H6          -1.2190     0.5000     0.1110 hn         1 37J       0.377500
     40 H7           0.2650    -3.6680     1.2770 h4         1 37J       0.182000
     41 H8           2.7090     1.1330     0.3110 hn         1 37J       0.349500
     42 H9           3.9940     2.4100     1.8820 ha         1 37J       0.128000
     43 H10          5.5230     4.3290     1.7790 ha         1 37J       0.130000
     44 H11          7.6450     4.1550     0.5120 ha         1 37J       0.130000
     45 H12          8.2230     2.0550    -0.6510 ha         1 37J       0.144000
     46 C20         -9.0710     0.4000    -0.6310 c3         1 37J       0.357300
@<TRIPOS>BOND
     1     1     2 1   
     2     1    21 2   
     3     2     5 1   
     4     2    23 2   
     5     3     7 2   
     6     4    14 1   
     7     4    15 1   
     8     4    35 1   
     9     5    19 1   
    10     5    20 2   
    11     6    15 2   
    12     6    16 1   
    13     7     8 1   
    14     7    24 1   
    15     8    25 ar  
    16     8    29 ar  
    17     9    46 1   
    18    10    46 1   
    19    11    46 1   
    20    12    13 ar  
    21    12    18 ar  
    22    12    46 1   
    23    13    14 ar  
    24    13    36 1   
    25    14    16 ar  
    26    15    19 1   
    27    16    17 ar  
    28    17    18 ar  
    29    17    37 1   
    30    18    38 1   
    31    19    39 1   
    32    21    22 1   
    33    21    24 1   
    34    22    23 1   
    35    23    40 1   
    36    24    41 1   
    37    25    26 ar  
    38    25    42 1   
    39    26    27 ar  
    40    26    43 1   
    41    27    28 ar  
    42    27    44 1   
    43    28    29 ar  
    44    28    45 1   
    45    29    30 1   
    46    30    31 1   
    47    31    32 1   
    48    31    33 1   
    49    31    34 1   
@<TRIPOS>SUBSTRUCTURE
     1 37J         1 TEMP              0 ****  ****    0 ROOT
