@<TRIPOS>MOLECULE
37J
   46    49     1     0     0
SMALL
No Charge or Current Charge


@<TRIPOS>ATOM
      1 N1           0.6750    -0.6820     0.3950 nc         1 37J      -0.710000
      2 C2          -0.1580    -1.7760     0.5710 cc         1 37J       0.232500
      3 O2           4.8130    -1.2900     0.6560 o          1 37J      -0.541100
      4 N3          -4.5180    -0.7950     0.1950 na         1 37J      -0.314600
      5 C4          -1.6600    -1.7030     0.4930 c          1 37J       0.555600
      6 N4          -3.6550     1.3010    -0.1740 nc         1 37J      -0.630100
      7 C5           4.2730    -0.2160     0.4390 c          1 37J       0.622700
      8 C6           5.0440     1.0820     0.2920 ca         1 37J      -0.148600
      9 F6         -10.0220     1.7370     0.1410 f          1 37J      -0.115667
     10 F4          -9.7150    -0.3850     0.4690 f          1 37J      -0.115667
     11 F5          -9.7630     0.4030    -1.5570 f          1 37J      -0.115667
     12 C14         -7.8170     0.8880    -0.2680 ca         1 37J      -0.195300
     13 C15         -6.9330    -0.1930    -0.0250 ca         1 37J      -0.046000
     14 C16         -5.5560     0.0690    -0.0160 ca         1 37J      -0.096200
     15 C19         -3.3840     0.0130     0.0870 cd         1 37J       0.503400
     16 C17         -5.0380     1.3100    -0.2350 ca         1 37J       0.118400
     17 C18         -5.8840     2.3980    -0.4860 ca         1 37J      -0.067000
     18 C13         -7.2780     2.1820    -0.5040 ca         1 37J      -0.085000
     19 N5          -2.1040    -0.4300     0.2280 ns         1 37J      -0.396400
     20 O1          -2.4180    -2.6570     0.6460 o          1 37J      -0.593100
     21 C3           1.9400    -1.0430     0.5180 cd         1 37J       0.536300
     22 S            2.2200    -2.7570     0.8640 ss         1 37J       0.122600
     23 C1           0.4800    -2.9680     0.8300 cd         1 37J      -0.243000
     24 N2           2.9060    -0.0880     0.3770 ns         1 37J      -0.465400
     25 C11          4.4540     2.3050     0.7030 ca         1 37J      -0.076000
     26 C10          5.1520     3.5160     0.5890 ca         1 37J      -0.103000
     27 C9           6.4500     3.5310     0.0640 ca         1 37J      -0.074000
     28 C8           7.0520     2.3330    -0.3490 ca         1 37J      -0.105000
     29 C7           6.3610     1.1010    -0.2410 ca         1 37J       0.144100
     30 O3           6.9170    -0.0910    -0.6780 os         1 37J      -0.390100
     31 C12          8.2410    -0.2270    -1.2330 c3         1 37J       0.516000
     32 F1           8.4950    -1.5170    -1.5440 f          1 37J      -0.105000
     33 F2           8.3920     0.4870    -2.3730 f          1 37J      -0.105000
     34 F3           9.2010     0.1640    -0.3640 f          1 37J      -0.105000
     35 H1          -4.5290    -1.7890     0.3870 hn         1 37J       0.391000
     36 H3          -7.3030    -1.2020     0.1480 ha         1 37J       0.136000
     37 H4          -5.4710     3.3880    -0.6650 ha         1 37J       0.135000
     38 H5          -7.9390     3.0230    -0.7060 ha         1 37J       0.127000
     39 H6          -1.3580     0.2450     0.1280 hn         1 37J       0.377500
     40 H7           0.0350    -3.9410     1.0000 h4         1 37J       0.182000
     41 H8           2.5800     0.8430     0.1710 hn         1 37J       0.349500
     42 H9           3.4590     2.3300     1.1420 ha         1 37J       0.128000
     43 H10          4.6880     4.4440     0.9150 ha         1 37J       0.130000
     44 H11          6.9910     4.4710    -0.0230 ha         1 37J       0.130000
     45 H12          8.0570     2.3900    -0.7550 ha         1 37J       0.144000
     46 C20         -9.3320     0.6600    -0.3010 c3         1 37J       0.357300
@<TRIPOS>BOND
     1     1     2 1   
     2     1    21 2   
     3     2     5 1   
     4     2    23 2   
     5     3     7 2   
     6     4    14 1   
     7     4    15 1   
     8     4    35 1   
     9     5    19 1   
    10     5    20 2   
    11     6    15 2   
    12     6    16 1   
    13     7     8 1   
    14     7    24 1   
    15     8    25 ar  
    16     8    29 ar  
    17     9    46 1   
    18    10    46 1   
    19    11    46 1   
    20    12    13 ar  
    21    12    18 ar  
    22    12    46 1   
    23    13    14 ar  
    24    13    36 1   
    25    14    16 ar  
    26    15    19 1   
    27    16    17 ar  
    28    17    18 ar  
    29    17    37 1   
    30    18    38 1   
    31    19    39 1   
    32    21    22 1   
    33    21    24 1   
    34    22    23 1   
    35    23    40 1   
    36    24    41 1   
    37    25    26 ar  
    38    25    42 1   
    39    26    27 ar  
    40    26    43 1   
    41    27    28 ar  
    42    27    44 1   
    43    28    29 ar  
    44    28    45 1   
    45    29    30 1   
    46    30    31 1   
    47    31    32 1   
    48    31    33 1   
    49    31    34 1   
@<TRIPOS>SUBSTRUCTURE
     1 37J         1 TEMP              0 ****  ****    0 ROOT
