@<TRIPOS>MOLECULE
37K
  118   123     1     0     0
SMALL
abcg2


@<TRIPOS>ATOM
      1 CBE          1.8350     4.8760    -5.0720 c6         1 37K       0.124300
      2 CAW          0.5370     4.6670    -5.8260 c6         1 37K       0.150600
      3 OBM         -0.4520     5.5820    -5.4090 os         1 37K      -0.451000
      4 CAX         -0.6870     5.4650    -4.0240 c6         1 37K       0.150600
      5 CBF          0.5840     5.6720    -3.2190 c6         1 37K       0.124300
      6 NCE          1.6120     4.7370    -3.6430 n3         1 37K      -0.709600
      7 CBG          2.8450     4.8960    -2.8950 c3         1 37K       0.164800
      8 CAY          2.8040     4.3000    -1.5050 c3         1 37K       0.166600
      9 OBN          2.7380     2.8910    -1.6220 os         1 37K      -0.341100
     10 CBS          2.5820     2.1490    -0.5060 ca         1 37K       0.130100
     11 CAO          2.3660     0.7840    -0.7050 ca         1 37K      -0.127000
     12 CAK          2.6010     2.6590     0.7880 ca         1 37K      -0.194000
     13 CAJ          2.3940     1.7960     1.8600 ca         1 37K      -0.077000
     14 CAL          2.1730     0.4460     1.6640 ca         1 37K      -0.106000
     15 CBT          2.1610    -0.0660     0.3680 ca         1 37K      -0.079300
     16 CCB          1.9630    -1.5390     0.1190 c3         1 37K       0.226600
     17 CBC          3.1710    -2.3620     0.5380 c3         1 37K      -0.072400
     18 CAZ          3.0190    -3.8530     0.2270 c3         1 37K      -0.024100
     19 CBR          4.2700    -4.6250     0.5410 ca         1 37K      -0.079300
     20 CAP          5.3430    -4.6150    -0.3580 ca         1 37K      -0.169000
     21 CAM          4.4070    -5.3250     1.7240 ca         1 37K      -0.104000
     22 CAN          5.5840    -6.0140     2.0190 ca         1 37K      -0.169000
     23 CBV          6.6430    -6.0080     1.1280 ca         1 37K       0.110100
     24 OBH          7.8170    -6.6450     1.3100 os         1 37K      -0.321100
     25 CAA          7.9970    -7.3730     2.5070 c3         1 37K       0.145900
     26 CBW          6.5180    -5.2930    -0.0820 ca         1 37K       0.112100
     27 OBI          7.5920    -5.3390    -0.8940 os         1 37K      -0.322100
     28 CAB          7.5230    -4.6560    -2.1280 c3         1 37K       0.145900
     29 OBO          0.8440    -2.0440     0.8640 os         1 37K      -0.437100
     30 C           -0.3730    -1.7290     0.4410 c          1 37K       0.605100
     31 O           -0.5990    -1.0450    -0.5230 o          1 37K      -0.480000
     32 CA          -1.4520    -2.4800     1.2100 c6         1 37K       0.058700
     33 CB          -1.7860    -3.7220     0.3730 c6         1 37K      -0.084400
     34 CAU         -3.1130    -4.3440     0.7650 c6         1 37K      -0.075400
     35 CAV         -4.1910    -3.2960     0.5610 c6         1 37K      -0.089400
     36 CBD         -3.9610    -2.0970     1.4610 c6         1 37K       0.110000
     37 N           -2.5880    -1.5890     1.4240 n          1 37K      -0.384800
     38 CBQ         -2.2620    -0.4260     2.0450 c          1 37K       0.596100
     39 OAG         -1.0970    -0.1780     2.3220 o          1 37K      -0.602100
     40 CCD         -3.3540     0.6110     2.2930 c3         1 37K      -0.080400
     41 CCA         -2.9400     1.6180     3.3850 c6         1 37K      -0.011500
     42 CBA         -3.9450     2.7660     3.4880 c6         1 37K      -0.071400
     43 CAT         -3.7020     3.5950     4.7420 c6         1 37K      -0.072400
     44 CAS         -3.9070     2.7530     5.9950 c6         1 37K      -0.044200
     45 CAH         -3.2530     1.4130     5.8630 c2         1 37K      -0.221200
     46 CAI         -2.8020     0.9200     4.7120 c2         1 37K      -0.217200
     47 CBU         -3.6430     1.2870     0.9670 ca         1 37K      -0.015300
     48 CAR         -4.9550     1.4580     0.5460 ca         1 37K      -0.217500
     49 CAQ         -2.5900     1.7510     0.1880 ca         1 37K      -0.217500
     50 CBX         -2.8480     2.3830    -1.0240 ca         1 37K       0.159600
     51 OBJ         -1.8940     2.8320    -1.8560 os         1 37K      -0.327600
     52 CAC         -0.5440     2.5630    -1.5270 c3         1 37K       0.135900
     53 CBZ         -4.1670     2.5830    -1.4440 ca         1 37K       0.023100
     54 OBL         -4.4260     3.2410    -2.6060 os         1 37K      -0.331100
     55 CAE         -4.4470     2.4090    -3.7570 c3         1 37K       0.147900
     56 CBY         -5.2200     2.1080    -0.6590 ca         1 37K       0.159600
     57 OBK         -6.4540     2.3240    -1.1490 os         1 37K      -0.327600
     58 CAD         -7.5620     1.8880    -0.3880 c3         1 37K       0.135900
     59 H1           2.5620     4.1290    -5.4010 h1         1 37K       0.039200
     60 H2           2.2480     5.8670    -5.3270 h1         1 37K       0.039200
     61 H3           0.6960     4.8200    -6.8940 h1         1 37K       0.056950
     62 H4           0.1920     3.6340    -5.6790 h1         1 37K       0.056950
     63 H5          -1.4240     6.2230    -3.7520 h1         1 37K       0.056950
     64 H6          -1.1190     4.4830    -3.7910 h1         1 37K       0.056950
     65 H7           0.9240     6.7160    -3.3290 h1         1 37K       0.039200
     66 H8           0.3500     5.5220    -2.1630 h1         1 37K       0.039200
     67 H10          3.6550     4.4150    -3.4500 h1         1 37K       0.044200
     68 H11          3.1290     5.9560    -2.7950 h1         1 37K       0.044200
     69 H12          3.7110     4.6030    -0.9680 h1         1 37K       0.035200
     70 H13          1.9480     4.6780    -0.9330 h1         1 37K       0.035200
     71 H14          2.3380     0.3990    -1.7180 ha         1 37K       0.127000
     72 H15          2.7690     3.7100     0.9800 ha         1 37K       0.114000
     73 H16          2.4050     2.1990     2.8650 ha         1 37K       0.113000
     74 H17          2.0000    -0.2020     2.5140 ha         1 37K       0.130000
     75 H18          1.7820    -1.7010    -0.9490 h1         1 37K       0.060700
     76 H19          4.0360    -1.9640     0.0000 hc         1 37K       0.059700
     77 H20          3.3780    -2.2200     1.6030 hc         1 37K       0.059700
     78 H21          2.1860    -4.2670     0.7980 hc         1 37K       0.048700
     79 H22          2.7630    -3.9720    -0.8300 hc         1 37K       0.048700
     80 H23          5.2380    -4.0660    -1.2870 ha         1 37K       0.117000
     81 H24          3.5920    -5.3480     2.4370 ha         1 37K       0.113000
     82 H25          5.6490    -6.5560     2.9530 ha         1 37K       0.118000
     83 H26          8.9880    -7.8170     2.4530 h1         1 37K       0.038700
     84 H27          7.9480    -6.7290     3.3890 h1         1 37K       0.038700
     85 H28          7.2590    -8.1720     2.6160 h1         1 37K       0.038700
     86 H29          6.7300    -5.0500    -2.7700 h1         1 37K       0.039033
     87 H30          7.3660    -3.5820    -1.9950 h1         1 37K       0.039033
     88 H31          8.4800    -4.8110    -2.6210 h1         1 37K       0.039033
     89 H32         -1.0540    -2.8120     2.1740 h1         1 37K       0.073700
     90 H33         -1.8380    -3.4540    -0.6850 hc         1 37K       0.060200
     91 H34         -0.9620    -4.4280     0.4850 hc         1 37K       0.060200
     92 H35         -3.3050    -5.2230     0.1470 hc         1 37K       0.048200
     93 H36         -3.0960    -4.6820     1.8060 hc         1 37K       0.048200
     94 H37         -4.1990    -2.9830    -0.4860 hc         1 37K       0.055200
     95 H38         -5.1840    -3.6890     0.7850 hc         1 37K       0.055200
     96 H39         -4.6390    -1.3030     1.1520 h1         1 37K       0.044200
     97 H40         -4.2230    -2.3740     2.4880 h1         1 37K       0.044200
     98 H41         -4.2710     0.1270     2.6390 hc         1 37K       0.063700
     99 H42         -1.9660     2.0330     3.1030 hc         1 37K       0.082700
    100 H43         -3.8860     3.3950     2.5990 hc         1 37K       0.044700
    101 H44         -4.9640     2.3620     3.5150 hc         1 37K       0.044700
    102 H45         -2.6780     3.9840     4.7260 hc         1 37K       0.042200
    103 H46         -4.3650     4.4630     4.7570 hc         1 37K       0.042200
    104 H47         -3.5140     3.2680     6.8760 hc         1 37K       0.044700
    105 H48         -4.9780     2.6190     6.1890 hc         1 37K       0.044700
    106 H49         -3.1360     0.8260     6.7690 ha         1 37K       0.169000
    107 H51         -2.3070    -0.0460     4.7220 ha         1 37K       0.175000
    108 H53         -5.7610     1.0850     1.1650 ha         1 37K       0.129000
    109 H54         -1.5720     1.5920     0.5160 ha         1 37K       0.129000
    110 H55         -0.2340     3.0880    -0.6180 h1         1 37K       0.047200
    111 H56         -0.3620     1.4950    -1.3880 h1         1 37K       0.047200
    112 H57          0.0590     2.9240    -2.3580 h1         1 37K       0.047200
    113 H58         -4.6870     3.0440    -4.6080 h1         1 37K       0.033367
    114 H59         -3.4770     1.9400    -3.9360 h1         1 37K       0.033367
    115 H60         -5.2070     1.6280    -3.6780 h1         1 37K       0.033367
    116 H61         -7.5600     0.8040    -0.2460 h1         1 37K       0.047200
    117 H62         -7.5990     2.3710     0.5930 h1         1 37K       0.047200
    118 H63         -8.4500     2.1650    -0.9490 h1         1 37K       0.047200
@<TRIPOS>BOND
     1     1     2 1   
     2     1     6 1   
     3     1    59 1   
     4     1    60 1   
     5     2     3 1   
     6     2    61 1   
     7     2    62 1   
     8     3     4 1   
     9     4     5 1   
    10     4    63 1   
    11     4    64 1   
    12     5     6 1   
    13     5    65 1   
    14     5    66 1   
    15     6     7 1   
    16     7     8 1   
    17     7    67 1   
    18     7    68 1   
    19     8     9 1   
    20     8    69 1   
    21     8    70 1   
    22     9    10 1   
    23    10    11 ar  
    24    10    12 ar  
    25    11    15 ar  
    26    11    71 1   
    27    12    13 ar  
    28    12    72 1   
    29    13    14 ar  
    30    13    73 1   
    31    14    15 ar  
    32    14    74 1   
    33    15    16 1   
    34    16    17 1   
    35    16    29 1   
    36    16    75 1   
    37    17    18 1   
    38    17    76 1   
    39    17    77 1   
    40    18    19 1   
    41    18    78 1   
    42    18    79 1   
    43    19    20 ar  
    44    19    21 ar  
    45    20    26 ar  
    46    20    80 1   
    47    21    22 ar  
    48    21    81 1   
    49    22    23 ar  
    50    22    82 1   
    51    23    24 1   
    52    23    26 ar  
    53    24    25 1   
    54    25    83 1   
    55    25    84 1   
    56    25    85 1   
    57    26    27 1   
    58    27    28 1   
    59    28    86 1   
    60    28    87 1   
    61    28    88 1   
    62    29    30 1   
    63    30    31 2   
    64    30    32 1   
    65    32    33 1   
    66    32    37 1   
    67    32    89 1   
    68    33    34 1   
    69    33    90 1   
    70    33    91 1   
    71    34    35 1   
    72    34    92 1   
    73    34    93 1   
    74    35    36 1   
    75    35    94 1   
    76    35    95 1   
    77    36    37 1   
    78    36    96 1   
    79    36    97 1   
    80    37    38 1   
    81    38    39 2   
    82    38    40 1   
    83    40    41 1   
    84    40    47 1   
    85    40    98 1   
    86    41    42 1   
    87    41    46 1   
    88    41    99 1   
    89    42    43 1   
    90    42   100 1   
    91    42   101 1   
    92    43    44 1   
    93    43   102 1   
    94    43   103 1   
    95    44    45 1   
    96    44   104 1   
    97    44   105 1   
    98    45    46 2   
    99    45   106 1   
   100    46   107 1   
   101    47    48 ar  
   102    47    49 ar  
   103    48    56 ar  
   104    48   108 1   
   105    49    50 ar  
   106    49   109 1   
   107    50    51 1   
   108    50    53 ar  
   109    51    52 1   
   110    52   110 1   
   111    52   111 1   
   112    52   112 1   
   113    53    54 1   
   114    53    56 ar  
   115    54    55 1   
   116    55   113 1   
   117    55   114 1   
   118    55   115 1   
   119    56    57 1   
   120    57    58 1   
   121    58   116 1   
   122    58   117 1   
   123    58   118 1   
@<TRIPOS>SUBSTRUCTURE
     1 37K         1 TEMP              0 ****  ****    0 ROOT
