@<TRIPOS>MOLECULE
37K
  118   123     1     0     0
SMALL
No Charge or Current Charge


@<TRIPOS>ATOM
      1 CBE         -0.0330     5.8960    -2.9860 c6         1 37K       0.124300
      2 CAW         -1.5760     5.6890    -3.0500 c6         1 37K       0.150600
      3 OBM         -2.1880     6.0870    -1.8000 os         1 37K      -0.451000
      4 CAX         -1.6730     5.3430    -0.6710 c6         1 37K       0.150600
      5 CBF         -0.1310     5.5310    -0.5520 c6         1 37K       0.124300
      6 NCE          0.5770     5.1780    -1.8250 n3         1 37K      -0.709600
      7 CBG          2.0600     5.3320    -1.7670 c3         1 37K       0.164800
      8 CAY          2.8010     4.4760    -0.7020 c3         1 37K       0.166600
      9 OBN          2.5940     3.0770    -0.9880 os         1 37K      -0.341100
     10 CBS          3.0050     2.0830    -0.1240 ca         1 37K       0.130100
     11 CAO          2.6490     0.7590    -0.4280 ca         1 37K      -0.127000
     12 CAK          3.7340     2.3550     1.0540 ca         1 37K      -0.194000
     13 CAJ          4.0760     1.3050     1.9230 ca         1 37K      -0.077000
     14 CAL          3.6880    -0.0130     1.6270 ca         1 37K      -0.106000
     15 CBT          2.9750    -0.3010     0.4440 ca         1 37K      -0.079300
     16 CCB          2.4910    -1.7230     0.1300 c3         1 37K       0.226600
     17 CBC          3.5920    -2.7990     0.2730 c3         1 37K      -0.072400
     18 CAZ          3.1510    -4.1990    -0.2080 c3         1 37K      -0.024100
     19 CBR          4.2670    -5.2260    -0.0710 ca         1 37K      -0.079300
     20 CAP          5.2130    -5.3840    -1.1000 ca         1 37K      -0.169000
     21 CAM          4.3640    -6.0130     1.0890 ca         1 37K      -0.104000
     22 CAN          5.3960    -6.9570     1.2250 ca         1 37K      -0.169000
     23 CBV          6.3480    -7.1230     0.1940 ca         1 37K       0.110100
     24 OBH          7.3790    -8.0440     0.2940 os         1 37K      -0.321100
     25 CAA          7.5500    -8.8900     1.4450 c3         1 37K       0.145900
     26 CBW          6.2570    -6.3300    -0.9760 ca         1 37K       0.112100
     27 OBI          7.2030    -6.5080    -1.9730 os         1 37K      -0.322100
     28 CAB          7.1920    -5.7480    -3.1940 c3         1 37K       0.145900
     29 OBO          1.4420    -2.0530     1.0590 os         1 37K      -0.437100
     30 C            0.2010    -1.4880     0.8770 c          1 37K       0.605100
     31 O           -0.0790    -0.7750    -0.0790 o          1 37K      -0.480000
     32 CA          -0.7390    -1.6810     2.1090 c6         1 37K       0.058700
     33 CB          -0.8220    -3.1970     2.4690 c6         1 37K      -0.084400
     34 CAU         -2.1020    -3.5770     3.2230 c6         1 37K      -0.075400
     35 CAV         -3.2970    -3.1250     2.3770 c6         1 37K      -0.089400
     36 CBD         -3.3360    -1.5890     2.2720 c6         1 37K       0.110000
     37 N           -2.0340    -0.8890     2.0410 n          1 37K      -0.384800
     38 CBQ         -1.9680     0.5310     1.9670 c          1 37K       0.596100
     39 OAG         -0.8810     1.0940     2.0540 o          1 37K      -0.602100
     40 CCD         -3.2540     1.3520     1.6500 c3         1 37K      -0.080400
     41 CCA         -3.2150     2.8210     2.2010 c6         1 37K      -0.011500
     42 CBA         -4.4290     3.6680     1.7180 c6         1 37K      -0.071400
     43 CAT         -4.5030     5.0140     2.4710 c6         1 37K      -0.072400
     44 CAS         -4.6930     4.7800     3.9880 c6         1 37K      -0.044200
     45 CAH         -3.7720     3.6910     4.5200 c2         1 37K      -0.221200
     46 CAI         -3.1170     2.8200     3.7300 c2         1 37K      -0.217200
     47 CBU         -3.5130     1.3080     0.1380 ca         1 37K      -0.015300
     48 CAR         -4.7950     0.9970    -0.3430 ca         1 37K      -0.217500
     49 CAQ         -2.4940     1.6010    -0.7820 ca         1 37K      -0.217500
     50 CBX         -2.7320     1.5890    -2.1750 ca         1 37K       0.159600
     51 OBJ         -1.7000     1.8710    -3.0550 os         1 37K      -0.327600
     52 CAC         -0.3190     1.9040    -2.6550 c3         1 37K       0.135900
     53 CBZ         -4.0430     1.2920    -2.6590 ca         1 37K       0.023100
     54 OBL         -4.4060     1.2670    -4.0080 os         1 37K      -0.331100
     55 CAE         -3.5330     1.5910    -5.1050 c3         1 37K       0.147900
     56 CBY         -5.0650     0.9910    -1.7270 ca         1 37K       0.159600
     57 OBK         -6.3300     0.6980    -2.2130 os         1 37K      -0.327600
     58 CAD         -7.4400     0.3840    -1.3540 c3         1 37K       0.135900
     59 H1           0.4090     5.5410    -3.9280 h1         1 37K       0.039200
     60 H2           0.1740     6.9740    -2.9170 h1         1 37K       0.039200
     61 H3          -2.0000     6.2890    -3.8670 h1         1 37K       0.056950
     62 H4          -1.8060     4.6320    -3.2480 h1         1 37K       0.056950
     63 H5          -2.1650     5.6930     0.2470 h1         1 37K       0.056950
     64 H6          -1.9120     4.2780    -0.8010 h1         1 37K       0.056950
     65 H7           0.0770     6.5760    -0.2780 h1         1 37K       0.039200
     66 H8           0.2240     4.9010     0.2760 h1         1 37K       0.039200
     67 H10          2.4910     5.0800    -2.7450 h1         1 37K       0.044200
     68 H11          2.3090     6.3850    -1.5790 h1         1 37K       0.044200
     69 H12          3.8720     4.7160    -0.7320 h1         1 37K       0.035200
     70 H13          2.4250     4.7310     0.2960 h1         1 37K       0.035200
     71 H14          2.0880     0.5600    -1.3350 ha         1 37K       0.127000
     72 H15          4.0340     3.3650     1.3150 ha         1 37K       0.114000
     73 H16          4.6280     1.5140     2.8370 ha         1 37K       0.113000
     74 H17          3.9330    -0.8050     2.3300 ha         1 37K       0.130000
     75 H18          2.1230    -1.7620    -0.9050 h1         1 37K       0.060700
     76 H19          4.4680    -2.4840    -0.3070 hc         1 37K       0.059700
     77 H20          3.9120    -2.8690     1.3190 hc         1 37K       0.059700
     78 H21          2.2720    -4.5220     0.3640 hc         1 37K       0.048700
     79 H22          2.8250    -4.1360    -1.2540 hc         1 37K       0.048700
     80 H23          5.1240    -4.7630    -1.9870 ha         1 37K       0.117000
     81 H24          3.6390    -5.8930     1.8910 ha         1 37K       0.113000
     82 H25          5.4390    -7.5470     2.1350 ha         1 37K       0.118000
     83 H26          8.4250    -9.5390     1.3120 h1         1 37K       0.038700
     84 H27          7.7060    -8.2900     2.3500 h1         1 37K       0.038700
     85 H28          6.6710    -9.5300     1.5920 h1         1 37K       0.038700
     86 H29          6.2590    -5.9130    -3.7480 h1         1 37K       0.039033
     87 H30          7.2940    -4.6750    -2.9860 h1         1 37K       0.039033
     88 H31          8.0280    -6.0500    -3.8370 h1         1 37K       0.039033
     89 H32         -0.1680    -1.2330     2.9330 h1         1 37K       0.073700
     90 H33         -0.7790    -3.7910     1.5450 hc         1 37K       0.060200
     91 H34          0.0610    -3.4920     3.0530 hc         1 37K       0.060200
     92 H35         -2.1380    -4.6640     3.3830 hc         1 37K       0.048200
     93 H36         -2.1250    -3.1020     4.2140 hc         1 37K       0.048200
     94 H37         -3.2350    -3.5640     1.3720 hc         1 37K       0.055200
     95 H38         -4.2350    -3.4880     2.8180 hc         1 37K       0.055200
     96 H39         -4.0350    -1.3230     1.4660 h1         1 37K       0.044200
     97 H40         -3.7600    -1.1980     3.2080 h1         1 37K       0.044200
     98 H41         -4.1010     0.8400     2.1140 hc         1 37K       0.063700
     99 H42         -2.3020     3.2870     1.8020 hc         1 37K       0.082700
    100 H43         -4.3560     3.8580     0.6380 hc         1 37K       0.044700
    101 H44         -5.3640     3.1120     1.8770 hc         1 37K       0.044700
    102 H45         -3.5800     5.5840     2.2980 hc         1 37K       0.042200
    103 H46         -5.3280     5.6260     2.0800 hc         1 37K       0.042200
    104 H47         -4.5110     5.7190     4.5290 hc         1 37K       0.044700
    105 H48         -5.7350     4.5000     4.1940 hc         1 37K       0.044700
    106 H49         -3.6570     3.6460     5.6050 ha         1 37K       0.169000
    107 H51         -2.4610     2.0740     4.1800 ha         1 37K       0.175000
    108 H53         -5.5800     0.7770     0.3740 ha         1 37K       0.129000
    109 H54         -1.5110     1.8470    -0.3950 ha         1 37K       0.129000
    110 H55         -0.1450     2.6700    -1.8920 h1         1 37K       0.047200
    111 H56         -0.0150     0.9310    -2.2510 h1         1 37K       0.047200
    112 H57          0.3220     2.1340    -3.5150 h1         1 37K       0.047200
    113 H58         -4.0800     1.5190    -6.0530 h1         1 37K       0.033367
    114 H59         -3.1520     2.6160    -5.0140 h1         1 37K       0.033367
    115 H60         -2.6880     0.8930    -5.1540 h1         1 37K       0.033367
    116 H61         -7.2290    -0.5100    -0.7530 h1         1 37K       0.047200
    117 H62         -7.6600     1.2200    -0.6780 h1         1 37K       0.047200
    118 H63         -8.3390     0.1860    -1.9510 h1         1 37K       0.047200
@<TRIPOS>BOND
     1     1     2 1   
     2     1     6 1   
     3     1    59 1   
     4     1    60 1   
     5     2     3 1   
     6     2    61 1   
     7     2    62 1   
     8     3     4 1   
     9     4     5 1   
    10     4    63 1   
    11     4    64 1   
    12     5     6 1   
    13     5    65 1   
    14     5    66 1   
    15     6     7 1   
    16     7     8 1   
    17     7    67 1   
    18     7    68 1   
    19     8     9 1   
    20     8    69 1   
    21     8    70 1   
    22     9    10 1   
    23    10    11 ar  
    24    10    12 ar  
    25    11    15 ar  
    26    11    71 1   
    27    12    13 ar  
    28    12    72 1   
    29    13    14 ar  
    30    13    73 1   
    31    14    15 ar  
    32    14    74 1   
    33    15    16 1   
    34    16    17 1   
    35    16    29 1   
    36    16    75 1   
    37    17    18 1   
    38    17    76 1   
    39    17    77 1   
    40    18    19 1   
    41    18    78 1   
    42    18    79 1   
    43    19    20 ar  
    44    19    21 ar  
    45    20    26 ar  
    46    20    80 1   
    47    21    22 ar  
    48    21    81 1   
    49    22    23 ar  
    50    22    82 1   
    51    23    24 1   
    52    23    26 ar  
    53    24    25 1   
    54    25    83 1   
    55    25    84 1   
    56    25    85 1   
    57    26    27 1   
    58    27    28 1   
    59    28    86 1   
    60    28    87 1   
    61    28    88 1   
    62    29    30 1   
    63    30    31 2   
    64    30    32 1   
    65    32    33 1   
    66    32    37 1   
    67    32    89 1   
    68    33    34 1   
    69    33    90 1   
    70    33    91 1   
    71    34    35 1   
    72    34    92 1   
    73    34    93 1   
    74    35    36 1   
    75    35    94 1   
    76    35    95 1   
    77    36    37 1   
    78    36    96 1   
    79    36    97 1   
    80    37    38 1   
    81    38    39 2   
    82    38    40 1   
    83    40    41 1   
    84    40    47 1   
    85    40    98 1   
    86    41    42 1   
    87    41    46 1   
    88    41    99 1   
    89    42    43 1   
    90    42   100 1   
    91    42   101 1   
    92    43    44 1   
    93    43   102 1   
    94    43   103 1   
    95    44    45 1   
    96    44   104 1   
    97    44   105 1   
    98    45    46 2   
    99    45   106 1   
   100    46   107 1   
   101    47    48 ar  
   102    47    49 ar  
   103    48    56 ar  
   104    48   108 1   
   105    49    50 ar  
   106    49   109 1   
   107    50    51 1   
   108    50    53 ar  
   109    51    52 1   
   110    52   110 1   
   111    52   111 1   
   112    52   112 1   
   113    53    54 1   
   114    53    56 ar  
   115    54    55 1   
   116    55   113 1   
   117    55   114 1   
   118    55   115 1   
   119    56    57 1   
   120    57    58 1   
   121    58   116 1   
   122    58   117 1   
   123    58   118 1   
@<TRIPOS>SUBSTRUCTURE
     1 37K         1 TEMP              0 ****  ****    0 ROOT
