@<TRIPOS>MOLECULE
37L
   97   100     1     0     0
SMALL
No Charge or Current Charge


@<TRIPOS>ATOM
      1 CAD          1.5840     0.8690     4.8670 c3         1 37L       0.144900
      2 OBE          2.3200    -0.0530     4.0440 os         1 37L      -0.323100
      3 CBS          2.7290     0.2590     2.7580 ca         1 37L       0.152600
      4 CAS          2.4730     1.5220     2.1830 ca         1 37L      -0.212000
      5 CBU          3.4240    -0.7220     2.0160 ca         1 37L       0.034100
      6 OBG          3.7060    -1.9370     2.6180 os         1 37L      -0.334100
      7 CAF          3.1800    -3.1590     2.0730 c3         1 37L       0.144900
      8 CBT          3.8720    -0.4270     0.7050 ca         1 37L       0.152600
      9 OBF          4.6260    -1.3690     0.0250 os         1 37L      -0.323100
     10 CAE          5.2430    -1.1020    -1.2460 c3         1 37L       0.144900
     11 CAT          3.5880     0.8360     0.1410 ca         1 37L      -0.212000
     12 CBP          2.8900     1.8160     0.8720 ca         1 37L      -0.006300
     13 CBW          2.6660     3.2070     0.2580 c3         1 37L      -0.084400
     14 CAW          3.4590     4.3100     1.0030 c3         1 37L      -0.039200
     15 CAK          4.9570     4.0720     0.9730 c2         1 37L      -0.210200
     16 CAA          5.8460     4.8290     0.3130 c2         1 37L      -0.328000
     17 CBL          1.1610     3.5800     0.1640 c          1 37L       0.597100
     18 OAI          0.4720     3.6700     1.1700 o          1 37L      -0.580100
     19 N            0.6010     3.7750    -1.1240 n          1 37L      -0.378800
     20 CBB          1.2570     4.7860    -2.0120 c6         1 37L       0.098000
     21 CAV          0.9100     4.6270    -3.5070 c6         1 37L      -0.086400
     22 CAU         -0.6120     4.6100    -3.7190 c6         1 37L      -0.076400
     23 CB          -1.2300     3.4980    -2.8530 c6         1 37L      -0.085400
     24 CA          -0.8990     3.6860    -1.3400 c6         1 37L       0.040700
     25 C           -1.6340     2.5860    -0.5150 c          1 37L       0.611100
     26 O           -2.2120     2.8250     0.5390 o          1 37L      -0.457000
     27 OBI         -1.3420     1.3170    -0.9450 os         1 37L      -0.442100
     28 CBV         -1.9090     0.1990    -0.2440 c3         1 37L       0.229600
     29 CBA         -1.1560    -1.0600    -0.7230 c3         1 37L      -0.070400
     30 CAY          0.3390    -1.0730    -0.3320 c3         1 37L      -0.030100
     31 CBM          1.0640    -2.2860    -0.8980 ca         1 37L      -0.062300
     32 CAQ          0.8640    -3.5580    -0.3330 ca         1 37L      -0.168000
     33 CAO          1.9350    -2.1410    -1.9910 ca         1 37L      -0.111000
     34 CAP          2.6200    -3.2520    -2.5090 ca         1 37L      -0.168000
     35 CBQ          2.4390    -4.5300    -1.9330 ca         1 37L       0.098100
     36 OBC          3.1060    -5.6470    -2.4110 os         1 37L      -0.322100
     37 CAB          4.0370    -5.5790    -3.5050 c3         1 37L       0.147900
     38 CBR          1.5520    -4.6840    -0.8400 ca         1 37L       0.111100
     39 OBD          1.3900    -5.9460    -0.2890 os         1 37L      -0.328100
     40 CAC          0.5280    -6.1940     0.8350 c3         1 37L       0.143900
     41 CBO         -3.4090     0.1290    -0.5450 ca         1 37L      -0.088300
     42 CAR         -4.3400     0.0630     0.5110 ca         1 37L      -0.136000
     43 CAN         -3.8810     0.1370    -1.8740 ca         1 37L      -0.171000
     44 CAL         -5.2580     0.0780    -2.1410 ca         1 37L      -0.082000
     45 CAM         -6.1790     0.0110    -1.0830 ca         1 37L      -0.209000
     46 CBN         -5.7200     0.0040     0.2520 ca         1 37L       0.173100
     47 OBH         -6.5780    -0.0600     1.3320 os         1 37L      -0.293100
     48 CAX         -8.0170    -0.1250     1.1730 c3         1 37L       0.001600
     49 CBJ         -8.7820    -0.1920     2.5280 c          1 37L       0.729000
     50 OAJ        -10.0050    -0.2480     2.4850 o          1 37L      -0.712500
     51 OAG         -8.1530    -0.1860     3.5800 o          1 37L      -0.712500
     52 H1           2.1680     1.7810     5.0490 h1         1 37L       0.040367
     53 H2           0.6360     1.1460     4.3890 h1         1 37L       0.040367
     54 H3           1.3560     0.4120     5.8370 h1         1 37L       0.040367
     55 H4           1.9600     2.2900     2.7520 ha         1 37L       0.127000
     56 H5           3.5070    -4.0150     2.6750 h1         1 37L       0.037033
     57 H6           2.0840    -3.1370     2.0820 h1         1 37L       0.037033
     58 H7           3.5170    -3.3230     1.0430 h1         1 37L       0.037033
     59 H8           5.9510    -0.2680    -1.1660 h1         1 37L       0.040367
     60 H9           5.7940    -1.9860    -1.5920 h1         1 37L       0.040367
     61 H10          4.4910    -0.8540    -2.0040 h1         1 37L       0.040367
     62 H11          3.9300     1.0810    -0.8600 ha         1 37L       0.127000
     63 H12          3.0590     3.1750    -0.7620 hc         1 37L       0.062700
     64 H13          3.2260     5.2800     0.5450 hc         1 37L       0.056700
     65 H14          3.1140     4.3770     2.0430 hc         1 37L       0.056700
     66 H15          5.2890     3.2060     1.5520 ha         1 37L       0.181000
     67 H16          5.5420     5.6990    -0.2710 ha         1 37L       0.159000
     68 H17          6.9140     4.6030     0.3340 ha         1 37L       0.159000
     69 H18          0.9350     5.7840    -1.6830 h1         1 37L       0.038700
     70 H19          2.3480     4.7640    -1.9070 h1         1 37L       0.038700
     71 H20          1.3610     5.4450    -4.0840 hc         1 37L       0.049700
     72 H21          1.3500     3.6940    -3.8880 hc         1 37L       0.049700
     73 H22         -1.0440     5.5840    -3.4490 hc         1 37L       0.044200
     74 H23         -0.8460     4.4390    -4.7790 hc         1 37L       0.044200
     75 H24         -2.3190     3.4850    -2.9950 hc         1 37L       0.068200
     76 H25         -0.8620     2.5220    -3.2010 hc         1 37L       0.068200
     77 H26         -1.3410     4.6360    -1.0100 h1         1 37L       0.067700
     78 H27         -1.7520     0.2990     0.8390 h1         1 37L       0.068700
     79 H28         -1.6450    -1.9460    -0.3000 hc         1 37L       0.057200
     80 H29         -1.2440    -1.1430    -1.8130 hc         1 37L       0.057200
     81 H30          0.8180    -0.1520    -0.6850 hc         1 37L       0.055200
     82 H31          0.4280    -1.0610     0.7610 hc         1 37L       0.055200
     83 H32          0.1800    -3.6510     0.5060 ha         1 37L       0.125000
     84 H33          2.0840    -1.1620    -2.4410 ha         1 37L       0.110000
     85 H34          3.2880    -3.1000    -3.3510 ha         1 37L       0.109000
     86 H35          4.4510    -6.5740    -3.7120 h1         1 37L       0.034033
     87 H36          3.5420    -5.2200    -4.4160 h1         1 37L       0.034033
     88 H37          4.8710    -4.9060    -3.2660 h1         1 37L       0.034033
     89 H38          0.5530    -7.2570     1.1060 h1         1 37L       0.041033
     90 H39          0.8490    -5.6130     1.7090 h1         1 37L       0.041033
     91 H40         -0.5100    -5.9290     0.5960 h1         1 37L       0.041033
     92 H41         -3.9960     0.0590     1.5420 ha         1 37L       0.129000
     93 H42         -3.1790     0.1930    -2.7020 ha         1 37L       0.098000
     94 H43         -5.6120     0.0860    -3.1700 ha         1 37L       0.092000
     95 H44         -7.2390    -0.0340    -1.3150 ha         1 37L       0.122000
     96 H45         -8.3760     0.7610     0.6330 h1         1 37L       0.017200
     97 H46         -8.2920    -1.0150     0.5930 h1         1 37L       0.017200
@<TRIPOS>BOND
     1     1     2 1   
     2     1    52 1   
     3     1    53 1   
     4     1    54 1   
     5     2     3 1   
     6     3     4 ar  
     7     3     5 ar  
     8     4    12 ar  
     9     4    55 1   
    10     5     6 1   
    11     5     8 ar  
    12     6     7 1   
    13     7    56 1   
    14     7    57 1   
    15     7    58 1   
    16     8     9 1   
    17     8    11 ar  
    18     9    10 1   
    19    10    59 1   
    20    10    60 1   
    21    10    61 1   
    22    11    12 ar  
    23    11    62 1   
    24    12    13 1   
    25    13    14 1   
    26    13    17 1   
    27    13    63 1   
    28    14    15 1   
    29    14    64 1   
    30    14    65 1   
    31    15    16 2   
    32    15    66 1   
    33    16    67 1   
    34    16    68 1   
    35    17    18 2   
    36    17    19 1   
    37    19    20 1   
    38    19    24 1   
    39    20    21 1   
    40    20    69 1   
    41    20    70 1   
    42    21    22 1   
    43    21    71 1   
    44    21    72 1   
    45    22    23 1   
    46    22    73 1   
    47    22    74 1   
    48    23    24 1   
    49    23    75 1   
    50    23    76 1   
    51    24    25 1   
    52    24    77 1   
    53    25    26 2   
    54    25    27 1   
    55    27    28 1   
    56    28    29 1   
    57    28    41 1   
    58    28    78 1   
    59    29    30 1   
    60    29    79 1   
    61    29    80 1   
    62    30    31 1   
    63    30    81 1   
    64    30    82 1   
    65    31    32 ar  
    66    31    33 ar  
    67    32    38 ar  
    68    32    83 1   
    69    33    34 ar  
    70    33    84 1   
    71    34    35 ar  
    72    34    85 1   
    73    35    36 1   
    74    35    38 ar  
    75    36    37 1   
    76    37    86 1   
    77    37    87 1   
    78    37    88 1   
    79    38    39 1   
    80    39    40 1   
    81    40    89 1   
    82    40    90 1   
    83    40    91 1   
    84    41    42 ar  
    85    41    43 ar  
    86    42    46 ar  
    87    42    92 1   
    88    43    44 ar  
    89    43    93 1   
    90    44    45 ar  
    91    44    94 1   
    92    45    46 ar  
    93    45    95 1   
    94    46    47 1   
    95    47    48 1   
    96    48    49 1   
    97    48    96 1   
    98    48    97 1   
    99    49    50 1   
   100    49    51 1   
@<TRIPOS>SUBSTRUCTURE
     1 37L         1 TEMP              0 ****  ****    0 ROOT
