@<TRIPOS>MOLECULE
37L
   97   100     1     0     0
SMALL
abcg2


@<TRIPOS>ATOM
      1 CAD          2.0990     0.3740     4.4970 c3         1 37L       0.144900
      2 OBE          2.9140    -0.4060     3.6470 os         1 37L      -0.323100
      3 CBS          3.1890     0.0670     2.4160 ca         1 37L       0.152600
      4 CAS          2.7560     1.2990     1.9370 ca         1 37L      -0.212000
      5 CBU          3.9740    -0.7670     1.6160 ca         1 37L       0.034100
      6 OBG          4.4340    -1.9470     2.1120 os         1 37L      -0.334100
      7 CAF          3.5890    -3.0570     1.8370 c3         1 37L       0.144900
      8 CBT          4.2930    -0.3740     0.3170 ca         1 37L       0.152600
      9 OBF          5.0510    -1.2340    -0.3850 os         1 37L      -0.323100
     10 CAE          5.4130    -0.8880    -1.7040 c3         1 37L       0.144900
     11 CAT          3.8410     0.8530    -0.1660 ca         1 37L      -0.212000
     12 CBP          3.0770     1.6860     0.6410 ca         1 37L      -0.006300
     13 CBW          2.6720     3.0360     0.0920 c3         1 37L      -0.084400
     14 CAW          3.2260     4.2050     0.9360 c3         1 37L      -0.039200
     15 CAK          4.7180     4.1840     1.0090 c2         1 37L      -0.210200
     16 CAA          5.5070     5.1320     0.5160 c2         1 37L      -0.328000
     17 CBL          1.1590     3.1900     0.0060 c          1 37L       0.597100
     18 OAI          0.4650     2.9380     0.9790 o          1 37L      -0.580100
     19 N            0.5990     3.6090    -1.1620 n          1 37L      -0.378800
     20 CBB          1.3200     4.4840    -2.0910 c6         1 37L       0.098000
     21 CAV          0.7630     4.4170    -3.5010 c6         1 37L      -0.086400
     22 CAU         -0.7200     4.7430    -3.4990 c6         1 37L      -0.076400
     23 CB          -1.4350     3.7780    -2.5700 c6         1 37L      -0.085400
     24 CA          -0.8500     3.8040    -1.1490 c6         1 37L       0.040700
     25 C           -1.5910     2.7500    -0.3480 c          1 37L       0.611100
     26 O           -2.4860     3.0060     0.4170 o          1 37L      -0.457000
     27 OBI         -1.2580     1.5210    -0.7210 os         1 37L      -0.442100
     28 CBV         -1.9290     0.4210    -0.0970 c3         1 37L       0.229600
     29 CBA         -1.1870    -0.8380    -0.5200 c3         1 37L      -0.070400
     30 CAY          0.2700    -0.8940    -0.0590 c3         1 37L      -0.030100
     31 CBM          0.9500    -2.1430    -0.5450 ca         1 37L      -0.062300
     32 CAQ          0.5910    -3.3900    -0.0230 ca         1 37L      -0.168000
     33 CAO          1.9170    -2.0970    -1.5300 ca         1 37L      -0.111000
     34 CAP          2.5270    -3.2620    -1.9940 ca         1 37L      -0.168000
     35 CBQ          2.1710    -4.4950    -1.4780 ca         1 37L       0.098100
     36 OBC          2.6970    -5.6790    -1.8550 os         1 37L      -0.322100
     37 CAB          3.7080    -5.6670    -2.8400 c3         1 37L       0.147900
     38 CBR          1.1830    -4.5570    -0.4720 ca         1 37L       0.111100
     39 OBD          0.8960    -5.7940    -0.0170 os         1 37L      -0.328100
     40 CAC         -0.0570    -5.9160     1.0180 c3         1 37L       0.143900
     41 CBO         -3.3770     0.3580    -0.5140 ca         1 37L      -0.088300
     42 CAR         -4.3480     0.0790     0.4290 ca         1 37L      -0.136000
     43 CAN         -3.7390     0.5180    -1.8520 ca         1 37L      -0.171000
     44 CAL         -5.0700     0.4050    -2.2120 ca         1 37L      -0.082000
     45 CAM         -6.0540     0.1230    -1.2700 ca         1 37L      -0.209000
     46 CBN         -5.6920    -0.0480     0.0640 ca         1 37L       0.173100
     47 OBH         -6.5490    -0.3260     1.0610 os         1 37L      -0.293100
     48 CAX         -7.9240    -0.4640     0.7610 c3         1 37L       0.001600
     49 CBJ         -8.7220    -0.8080     2.0300 c          1 37L       0.729000
     50 OAJ         -9.9470    -0.9230     1.8310 o          1 37L      -0.712500
     51 OAG         -8.1040    -0.9420     3.0960 o          1 37L      -0.712500
     52 H1           2.5610     1.3350     4.7410 h1         1 37L       0.040367
     53 H2           1.1140     0.5600     4.0620 h1         1 37L       0.040367
     54 H3           1.9740    -0.1960     5.4140 h1         1 37L       0.040367
     55 H4           2.1550     1.9480     2.5550 ha         1 37L       0.127000
     56 H5           4.0450    -3.9310     2.3010 h1         1 37L       0.037033
     57 H6           2.5880    -2.9180     2.2530 h1         1 37L       0.037033
     58 H7           3.4930    -3.2330     0.7630 h1         1 37L       0.037033
     59 H8           6.0010     0.0340    -1.7400 h1         1 37L       0.040367
     60 H9           6.0230    -1.7050    -2.0820 h1         1 37L       0.040367
     61 H10          4.5420    -0.7740    -2.3540 h1         1 37L       0.040367
     62 H11          4.0900     1.1750    -1.1690 ha         1 37L       0.127000
     63 H12          3.1170     3.1100    -0.8980 hc         1 37L       0.062700
     64 H13          2.8890     5.1540     0.5110 hc         1 37L       0.056700
     65 H14          2.8060     4.1420     1.9430 hc         1 37L       0.056700
     66 H15          5.1650     3.3250     1.5000 ha         1 37L       0.181000
     67 H16          5.1060     6.0060     0.0170 ha         1 37L       0.159000
     68 H17          6.5850     5.0690     0.5960 ha         1 37L       0.159000
     69 H18          1.2600     5.5180    -1.7310 h1         1 37L       0.038700
     70 H19          2.3720     4.2170    -2.1130 h1         1 37L       0.038700
     71 H20          1.3210     5.1200    -4.1200 hc         1 37L       0.049700
     72 H21          0.9310     3.4180    -3.9130 hc         1 37L       0.049700
     73 H22         -0.8730     5.7730    -3.1630 hc         1 37L       0.044200
     74 H23         -1.1380     4.6680    -4.5040 hc         1 37L       0.044200
     75 H24         -2.4980     4.0190    -2.5010 hc         1 37L       0.068200
     76 H25         -1.3580     2.7680    -2.9770 hc         1 37L       0.068200
     77 H26         -1.0890     4.7740    -0.6950 h1         1 37L       0.067700
     78 H27         -1.8650     0.5320     0.9910 h1         1 37L       0.068700
     79 H28         -1.7340    -1.6900    -0.1080 hc         1 37L       0.057200
     80 H29         -1.2380    -0.9400    -1.6090 hc         1 37L       0.057200
     81 H30          0.8150    -0.0240    -0.4270 hc         1 37L       0.055200
     82 H31          0.3120    -0.8420     1.0320 hc         1 37L       0.055200
     83 H32         -0.1570    -3.4270     0.7600 ha         1 37L       0.125000
     84 H33          2.2160    -1.1430    -1.9460 ha         1 37L       0.110000
     85 H34          3.2860    -3.1810    -2.7600 ha         1 37L       0.109000
     86 H35          4.0050    -6.7010    -2.9940 h1         1 37L       0.034033
     87 H36          3.3540    -5.2580    -3.7900 h1         1 37L       0.034033
     88 H37          4.5850    -5.0960    -2.5200 h1         1 37L       0.034033
     89 H38         -0.1340    -6.9760     1.2440 h1         1 37L       0.041033
     90 H39          0.2520    -5.3850     1.9230 h1         1 37L       0.041033
     91 H40         -1.0410    -5.5480     0.7160 h1         1 37L       0.041033
     92 H41         -4.0750    -0.0410     1.4720 ha         1 37L       0.129000
     93 H42         -2.9900     0.7260    -2.6060 ha         1 37L       0.098000
     94 H43         -5.3580     0.5340    -3.2480 ha         1 37L       0.092000
     95 H44         -7.0830     0.0420    -1.5940 ha         1 37L       0.122000
     96 H45         -8.3200     0.4610     0.3260 h1         1 37L       0.017200
     97 H46         -8.0800    -1.2570     0.0200 h1         1 37L       0.017200
@<TRIPOS>BOND
     1     1     2 1   
     2     1    52 1   
     3     1    53 1   
     4     1    54 1   
     5     2     3 1   
     6     3     4 ar  
     7     3     5 ar  
     8     4    12 ar  
     9     4    55 1   
    10     5     6 1   
    11     5     8 ar  
    12     6     7 1   
    13     7    56 1   
    14     7    57 1   
    15     7    58 1   
    16     8     9 1   
    17     8    11 ar  
    18     9    10 1   
    19    10    59 1   
    20    10    60 1   
    21    10    61 1   
    22    11    12 ar  
    23    11    62 1   
    24    12    13 1   
    25    13    14 1   
    26    13    17 1   
    27    13    63 1   
    28    14    15 1   
    29    14    64 1   
    30    14    65 1   
    31    15    16 2   
    32    15    66 1   
    33    16    67 1   
    34    16    68 1   
    35    17    18 2   
    36    17    19 1   
    37    19    20 1   
    38    19    24 1   
    39    20    21 1   
    40    20    69 1   
    41    20    70 1   
    42    21    22 1   
    43    21    71 1   
    44    21    72 1   
    45    22    23 1   
    46    22    73 1   
    47    22    74 1   
    48    23    24 1   
    49    23    75 1   
    50    23    76 1   
    51    24    25 1   
    52    24    77 1   
    53    25    26 2   
    54    25    27 1   
    55    27    28 1   
    56    28    29 1   
    57    28    41 1   
    58    28    78 1   
    59    29    30 1   
    60    29    79 1   
    61    29    80 1   
    62    30    31 1   
    63    30    81 1   
    64    30    82 1   
    65    31    32 ar  
    66    31    33 ar  
    67    32    38 ar  
    68    32    83 1   
    69    33    34 ar  
    70    33    84 1   
    71    34    35 ar  
    72    34    85 1   
    73    35    36 1   
    74    35    38 ar  
    75    36    37 1   
    76    37    86 1   
    77    37    87 1   
    78    37    88 1   
    79    38    39 1   
    80    39    40 1   
    81    40    89 1   
    82    40    90 1   
    83    40    91 1   
    84    41    42 ar  
    85    41    43 ar  
    86    42    46 ar  
    87    42    92 1   
    88    43    44 ar  
    89    43    93 1   
    90    44    45 ar  
    91    44    94 1   
    92    45    46 ar  
    93    45    95 1   
    94    46    47 1   
    95    47    48 1   
    96    48    49 1   
    97    48    96 1   
    98    48    97 1   
    99    49    50 1   
   100    49    51 1   
@<TRIPOS>SUBSTRUCTURE
     1 37L         1 TEMP              0 ****  ****    0 ROOT
