@<TRIPOS>MOLECULE
37M
  143   151     1     0     0
SMALL
No Charge or Current Charge


@<TRIPOS>ATOM
      1 CCR          9.1410     1.2810    -1.6310 cc         1 37M       0.215000
      2 CCU          8.9230     0.0080    -2.1550 cd         1 37M      -0.183800
      3 CBA         10.0040    -0.9510    -2.2330 cd         1 37M      -0.061200
      4 CAY          9.7120    -2.1930    -2.7630 cc         1 37M      -0.327200
      5 CCS          8.3820    -2.5830    -3.2430 c          1 37M       0.589500
      6 OAJ          8.1560    -3.6880    -3.7130 o          1 37M      -0.602100
      7 CBF          7.3440    -1.5690    -3.1200 cc         1 37M      -0.390200
      8 CCT          7.5990    -0.3300    -2.6000 cd         1 37M       0.245000
      9 OBZ          6.5680     0.5530    -2.5230 os         1 37M      -0.294000
     10 CCW          6.7410     1.8170    -2.0210 ca         1 37M       0.256000
     11 CCV          8.0110     2.2150    -1.5690 ca         1 37M      -0.139000
     12 CAZ          8.1780     3.5200    -1.0650 ca         1 37M       0.030000
     13 CAX          7.0860     4.4000    -1.0100 ca         1 37M      -0.253000
     14 CCF          5.8240     3.9920    -1.4570 ca         1 37M       0.188100
     15 OAL          4.7850     4.8700    -1.3860 oh         1 37M      -0.536100
     16 CCP          5.6380     2.6950    -1.9720 ca         1 37M      -0.203300
     17 CBL          4.2720     2.2370    -2.4720 c3         1 37M       0.172300
     18 NBR          3.5280     1.5560    -1.4160 ns         1 37M      -0.500900
     19 CCB          2.3140     0.9340    -1.6020 c          1 37M       0.609100
     20 OAG          1.7670     0.9130    -2.6990 o          1 37M      -0.577100
     21 CBM          1.7200     0.2850    -0.3300 c3         1 37M       0.067600
     22 OBX          0.4430    -0.3490    -0.5790 os         1 37M      -0.323100
     23 CCG         -0.2740    -0.9800     0.4170 ca         1 37M       0.133100
     24 CBC         -1.5090    -1.5550     0.0740 ca         1 37M      -0.115000
     25 CAR          0.1880    -1.0620     1.7480 ca         1 37M      -0.178000
     26 CAQ         -0.5900    -1.7140     2.7200 ca         1 37M      -0.078000
     27 CAT         -1.8250    -2.2840     2.3710 ca         1 37M      -0.110000
     28 CCH         -2.2940    -2.2120     1.0430 ca         1 37M      -0.087300
     29 CCY         -3.6470    -2.8150     0.6550 c3         1 37M       0.227600
     30 CBP         -3.6790    -4.3500     0.8340 c3         1 37M      -0.073400
     31 CBK         -4.9910    -5.0060     0.3490 c3         1 37M      -0.026100
     32 CCE         -4.9660    -6.5190     0.5160 ca         1 37M      -0.075300
     33 CBB         -4.4230    -7.3330    -0.4950 ca         1 37M      -0.167000
     34 CAS         -5.4750    -7.1090     1.6850 ca         1 37M      -0.108000
     35 CAW         -5.4490    -8.5040     1.8480 ca         1 37M      -0.171000
     36 CCJ         -4.9070    -9.3290     0.8360 ca         1 37M       0.106100
     37 OBS         -4.8650   -10.7080     0.9630 os         1 37M      -0.322100
     38 CAA         -5.3660   -11.3920     2.1250 c3         1 37M       0.146900
     39 CCK         -4.3900    -8.7390    -0.3430 ca         1 37M       0.115100
     40 OBT         -3.8620    -9.5670    -1.3220 os         1 37M      -0.325100
     41 CAB         -3.3120    -9.0580    -2.5500 c3         1 37M       0.144900
     42 OBY         -4.6700    -2.2640     1.5030 os         1 37M      -0.442100
     43 C           -5.0450    -0.9550     1.3210 c          1 37M       0.610100
     44 O           -4.5330    -0.2190     0.4850 o          1 37M      -0.478000
     45 CA          -6.0740    -0.4570     2.3890 c6         1 37M       0.052700
     46 CB          -7.1810    -1.5370     2.6150 c6         1 37M      -0.084400
     47 CBI         -8.5320    -0.9510     3.0410 c6         1 37M      -0.074400
     48 CBJ         -8.9440     0.0820     1.9880 c6         1 37M      -0.088400
     49 CBQ         -7.9750     1.2800     1.9950 c6         1 37M       0.108000
     50 N           -6.5210     0.9790     2.1880 n          1 37M      -0.384800
     51 CCD         -5.5610     2.0230     2.3030 c          1 37M       0.594100
     52 OAI         -4.4410     1.7700     2.7360 o          1 37M      -0.585100
     53 CDA         -5.8900     3.4440     1.7610 c3         1 37M      -0.080400
     54 CCX         -5.2190     4.6030     2.5740 c6         1 37M      -0.012500
     55 CBN         -5.4590     5.9920     1.9120 c6         1 37M      -0.071400
     56 CBH         -5.0270     7.1380     2.8530 c6         1 37M      -0.073400
     57 CBG         -5.8530     7.1130     4.1600 c6         1 37M      -0.043200
     58 CAM         -5.9840     5.7060     4.7280 c2         1 37M      -0.223200
     59 CAN         -5.7050     4.5930     4.0270 c2         1 37M      -0.213200
     60 CCI         -5.5220     3.4760     0.2720 ca         1 37M      -0.014300
     61 CBE         -6.4990     3.7750    -0.6900 ca         1 37M      -0.218500
     62 CBD         -4.2110     3.2000    -0.1500 ca         1 37M      -0.218500
     63 CCL         -3.8630     3.1950    -1.5190 ca         1 37M       0.160600
     64 OBU         -2.5680     2.8850    -1.9030 os         1 37M      -0.325100
     65 CAC         -1.5670     2.4110    -0.9840 c3         1 37M       0.142900
     66 CCQ         -4.8590     3.5070    -2.4950 ca         1 37M       0.022100
     67 OBW         -4.6380     3.5440    -3.8740 os         1 37M      -0.327100
     68 CAE         -3.3770     3.2850    -4.5170 c3         1 37M       0.149900
     69 CCM         -6.1760     3.7960    -2.0630 ca         1 37M       0.160600
     70 OBV         -7.1310     4.0940    -3.0230 os         1 37M      -0.325100
     71 CAD         -8.4970     4.3990    -2.6930 c3         1 37M       0.142900
     72 H2          11.0130    -0.7320    -1.8900 ha         1 37M       0.190000
     73 H3          10.4740    -2.9590    -2.8520 ha         1 37M       0.183000
     74 H4           6.3590    -1.8520    -3.4660 ha         1 37M       0.211000
     75 H5           9.1500     3.8620    -0.7130 ha         1 37M       0.138000
     76 H7           7.2330     5.4030    -0.6150 ha         1 37M       0.113000
     77 H8           5.1190     5.7070    -1.0010 ho         1 37M       0.467000
     78 H10          3.6830     3.0930    -2.8270 h1         1 37M       0.068200
     79 H11          4.3920     1.5530    -3.3230 h1         1 37M       0.068200
     80 H12          3.9220     1.5420    -0.4830 hn         1 37M       0.314500
     81 H13          2.4490    -0.4470     0.0370 h1         1 37M       0.056700
     82 H14          1.6180     1.0760     0.4240 h1         1 37M       0.056700
     83 H15         -1.8580    -1.4820    -0.9530 ha         1 37M       0.130000
     84 H16          1.1380    -0.6290     2.0460 ha         1 37M       0.124000
     85 H17         -0.2370    -1.7740     3.7480 ha         1 37M       0.111000
     86 H18         -2.4210    -2.7770     3.1350 ha         1 37M       0.115000
     87 H19         -3.8600    -2.5920    -0.4000 h1         1 37M       0.064700
     88 H20         -2.8390    -4.7840     0.2780 hc         1 37M       0.060700
     89 H21         -3.5210    -4.6000     1.8900 hc         1 37M       0.060700
     90 H22         -5.8380    -4.5820     0.9030 hc         1 37M       0.047700
     91 H23         -5.1560    -4.7460    -0.7040 hc         1 37M       0.047700
     92 H24         -4.0300    -6.8580    -1.3890 ha         1 37M       0.121000
     93 H25         -5.8920    -6.4850     2.4730 ha         1 37M       0.112000
     94 H26         -5.8520    -8.9240     2.7650 ha         1 37M       0.115000
     95 H27         -6.4360   -11.1930     2.2640 h1         1 37M       0.036367
     96 H28         -5.2330   -12.4750     2.0150 h1         1 37M       0.036367
     97 H29         -4.8280   -11.0740     3.0270 h1         1 37M       0.036367
     98 H30         -4.0720    -8.5080    -3.1190 h1         1 37M       0.040700
     99 H31         -2.4650    -8.3890    -2.3510 h1         1 37M       0.040700
    100 H32         -2.9520    -9.8850    -3.1750 h1         1 37M       0.040700
    101 H33         -5.4920    -0.4610     3.3210 h1         1 37M       0.069700
    102 H34         -7.3360    -2.1020     1.6850 hc         1 37M       0.060200
    103 H35         -6.8390    -2.2740     3.3550 hc         1 37M       0.060200
    104 H36         -9.2860    -1.7480     3.1080 hc         1 37M       0.044700
    105 H37         -8.4600    -0.4860     4.0350 hc         1 37M       0.044700
    106 H38         -8.9540    -0.3810     0.9910 hc         1 37M       0.052700
    107 H39         -9.9670     0.4350     2.1760 hc         1 37M       0.052700
    108 H40         -8.1080     1.8290     1.0530 h1         1 37M       0.042700
    109 H41         -8.2820     1.9530     2.8080 h1         1 37M       0.042700
    110 H42         -6.9710     3.5950     1.8140 hc         1 37M       0.060700
    111 H43         -4.1360     4.4110     2.5780 hc         1 37M       0.086700
    112 H44         -4.9030     6.0630     0.9670 hc         1 37M       0.043700
    113 H45         -6.5220     6.1100     1.6600 hc         1 37M       0.043700
    114 H46         -3.9580     7.0360     3.0880 hc         1 37M       0.044700
    115 H47         -5.1470     8.1080     2.3520 hc         1 37M       0.044700
    116 H48         -5.3830     7.7730     4.9020 hc         1 37M       0.042700
    117 H49         -6.8570     7.5190     3.9730 hc         1 37M       0.042700
    118 H50         -6.3210     5.6370     5.7650 ha         1 37M       0.166000
    119 H51         -5.8080     3.6160     4.5050 ha         1 37M       0.175000
    120 H52         -7.5090     3.9930    -0.3560 ha         1 37M       0.128500
    121 H53         -3.4680     2.9770     0.6070 ha         1 37M       0.128500
    122 H54         -0.6380     2.1840    -1.5210 h1         1 37M       0.045033
    123 H55         -1.3400     3.1690    -0.2240 h1         1 37M       0.045033
    124 H56         -1.9020     1.4940    -0.4810 h1         1 37M       0.045033
    125 H57         -2.6130     3.9990    -4.1840 h1         1 37M       0.031367
    126 H58         -3.0340     2.2630    -4.3100 h1         1 37M       0.031367
    127 H59         -3.4810     3.3890    -5.6040 h1         1 37M       0.031367
    128 H60         -9.0710     4.6020    -3.6060 h1         1 37M       0.045033
    129 H61         -8.9720     3.5560    -2.1750 h1         1 37M       0.045033
    130 H62         -8.5550     5.2880    -2.0510 h1         1 37M       0.045033
    131 C1          12.7460     2.3790    -1.7970 ca         1 37M      -0.138000
    132 C2          13.0900     2.4510    -0.4400 ca         1 37M      -0.129000
    133 C3          12.1390     2.1290     0.5430 ca         1 37M      -0.088000
    134 C4          10.8350     1.7220     0.1820 ca         1 37M      -0.115600
    135 C5          10.4930     1.6500    -1.1950 ca         1 37M      -0.070000
    136 C6          11.4530     1.9860    -2.1710 ca         1 37M      -0.121000
    137 O2           9.1920     0.3580     1.1850 o          1 37M      -0.699500
    138 O1           9.7720     2.1460     2.2330 o          1 37M      -0.699500
    139 H65         14.0910     2.7600    -0.1470 ha         1 37M       0.094000
    140 H66         12.4160     2.1910     1.5930 ha         1 37M       0.135000
    141 H67         11.1900     1.9420    -3.2260 ha         1 37M       0.101000
    142 C7           9.8400     1.3900     1.2740 c          1 37M       0.707600
    143 H64         13.4800     2.6330    -2.5590 ha         1 37M       0.094000
@<TRIPOS>BOND
     1     1     2 2   
     2     1    11 1   
     3     1   135 1   
     4     2     3 1   
     5     2     8 1   
     6     3     4 2   
     7     3    72 1   
     8     4     5 1   
     9     4    73 1   
    10     5     6 2   
    11     5     7 1   
    12     7     8 2   
    13     7    74 1   
    14     8     9 1   
    15     9    10 1   
    16    10    11 ar  
    17    10    16 ar  
    18    11    12 ar  
    19    12    13 ar  
    20    12    75 1   
    21    13    14 ar  
    22    13    76 1   
    23    14    15 1   
    24    14    16 ar  
    25    15    77 1   
    26    16    17 1   
    27    17    18 1   
    28    17    78 1   
    29    17    79 1   
    30    18    19 1   
    31    18    80 1   
    32    19    20 2   
    33    19    21 1   
    34    21    22 1   
    35    21    81 1   
    36    21    82 1   
    37    22    23 1   
    38    23    24 ar  
    39    23    25 ar  
    40    24    28 ar  
    41    24    83 1   
    42    25    26 ar  
    43    25    84 1   
    44    26    27 ar  
    45    26    85 1   
    46    27    28 ar  
    47    27    86 1   
    48    28    29 1   
    49    29    30 1   
    50    29    42 1   
    51    29    87 1   
    52    30    31 1   
    53    30    88 1   
    54    30    89 1   
    55    31    32 1   
    56    31    90 1   
    57    31    91 1   
    58    32    33 ar  
    59    32    34 ar  
    60    33    39 ar  
    61    33    92 1   
    62    34    35 ar  
    63    34    93 1   
    64    35    36 ar  
    65    35    94 1   
    66    36    37 1   
    67    36    39 ar  
    68    37    38 1   
    69    38    95 1   
    70    38    96 1   
    71    38    97 1   
    72    39    40 1   
    73    40    41 1   
    74    41    98 1   
    75    41    99 1   
    76    41   100 1   
    77    42    43 1   
    78    43    44 2   
    79    43    45 1   
    80    45    46 1   
    81    45    50 1   
    82    45   101 1   
    83    46    47 1   
    84    46   102 1   
    85    46   103 1   
    86    47    48 1   
    87    47   104 1   
    88    47   105 1   
    89    48    49 1   
    90    48   106 1   
    91    48   107 1   
    92    49    50 1   
    93    49   108 1   
    94    49   109 1   
    95    50    51 1   
    96    51    52 2   
    97    51    53 1   
    98    53    54 1   
    99    53    60 1   
   100    53   110 1   
   101    54    55 1   
   102    54    59 1   
   103    54   111 1   
   104    55    56 1   
   105    55   112 1   
   106    55   113 1   
   107    56    57 1   
   108    56   114 1   
   109    56   115 1   
   110    57    58 1   
   111    57   116 1   
   112    57   117 1   
   113    58    59 2   
   114    58   118 1   
   115    59   119 1   
   116    60    61 ar  
   117    60    62 ar  
   118    61    69 ar  
   119    61   120 1   
   120    62    63 ar  
   121    62   121 1   
   122    63    64 1   
   123    63    66 ar  
   124    64    65 1   
   125    65   122 1   
   126    65   123 1   
   127    65   124 1   
   128    66    67 1   
   129    66    69 ar  
   130    67    68 1   
   131    68   125 1   
   132    68   126 1   
   133    68   127 1   
   134    69    70 1   
   135    70    71 1   
   136    71   128 1   
   137    71   129 1   
   138    71   130 1   
   139   131   132 ar  
   140   131   136 ar  
   141   131   143 1   
   142   132   133 ar  
   143   132   139 1   
   144   133   134 ar  
   145   133   140 1   
   146   134   135 ar  
   147   134   142 1   
   148   135   136 ar  
   149   136   141 1   
   150   137   142 1   
   151   138   142 1   
@<TRIPOS>SUBSTRUCTURE
     1 37M         1 TEMP              0 ****  ****    0 ROOT
