@<TRIPOS>MOLECULE
37M
  143   151     1     0     0
SMALL
bcc


@<TRIPOS>ATOM
      1 CCR          7.7050     1.7650    -1.1830 cc         1 37M       0.215000
      2 CCU          7.3290     0.4690    -1.4460 cd         1 37M      -0.249100
      3 CBA          8.1870    -0.6620    -1.2570 cd         1 37M      -0.011200
      4 CAY          7.7620    -1.9200    -1.4920 cc         1 37M      -0.277200
      5 CCS          6.4050    -2.2110    -1.9500 c          1 37M       0.589500
      6 OAJ          6.0290    -3.3700    -2.1620 o          1 37M      -0.602100
      7 CBF          5.5450    -1.0690    -2.1340 cc         1 37M      -0.340200
      8 CCT          5.9980     0.1900    -1.8910 cd         1 37M       0.354700
      9 OBZ          5.1390     1.2110    -2.0860 os         1 37M      -0.382800
     10 CCW          5.4890     2.4900    -1.8850 ca         1 37M       0.431000
     11 CCV          6.7710     2.8200    -1.4370 ca         1 37M      -0.204300
     12 CAZ          7.0620     4.1780    -1.2540 ca         1 37M       0.012000
     13 CAX          6.1200     5.1420    -1.5050 ca         1 37M      -0.271000
     14 CCF          4.8380     4.7770    -1.9480 ca         1 37M       0.188100
     15 OAL          3.8990     5.6980    -2.1910 oh         1 37M      -0.497100
     16 CCP          4.5040     3.4390    -2.1510 ca         1 37M      -0.268600
     17 CBL          3.1360     3.0040    -2.6060 c3         1 37M       0.172300
     18 NBR          2.4430     2.2700    -1.5690 ns         1 37M      -0.567900
     19 CCB          2.0180     1.0040    -1.6950 c          1 37M       0.676100
     20 OAG          2.0480     0.3590    -2.7280 o          1 37M      -0.577100
     21 CBM          1.5150     0.4070    -0.3910 c3         1 37M       0.044400
     22 OBX          0.5250    -0.5350    -0.7110 os         1 37M      -0.299900
     23 CCG         -0.1990    -1.0640     0.3020 ca         1 37M       0.133100
     24 CBC         -1.3410    -1.7720    -0.0710 ca         1 37M      -0.133000
     25 CAR          0.1230    -0.9290     1.6470 ca         1 37M      -0.196000
     26 CAQ         -0.7120    -1.5000     2.6030 ca         1 37M      -0.096000
     27 CAT         -1.8490    -2.1930     2.2370 ca         1 37M      -0.128000
     28 CCH         -2.1650    -2.3350     0.8860 ca         1 37M      -0.087300
     29 CCY         -3.4140    -3.0670     0.4670 c3         1 37M       0.204400
     30 CBP         -3.4650    -4.5020     0.9650 c3         1 37M      -0.073400
     31 CBK         -4.7260    -5.2500     0.5250 c3         1 37M      -0.026100
     32 CCE         -4.7100    -6.6810     0.9830 ca         1 37M      -0.075300
     33 CBB         -3.9810    -7.6400     0.2700 ca         1 37M      -0.185000
     34 CAS         -5.3680    -7.0740     2.1330 ca         1 37M      -0.126000
     35 CAW         -5.3080    -8.3960     2.5780 ca         1 37M      -0.189000
     36 CCJ         -4.5860    -9.3430     1.8740 ca         1 37M       0.106100
     37 OBS         -4.4670   -10.6410     2.2150 os         1 37M      -0.298900
     38 CAA         -5.1210   -11.0800     3.3870 c3         1 37M       0.123700
     39 CCK         -3.9110    -8.9550     0.6970 ca         1 37M       0.115100
     40 OBT         -3.2350    -9.9360     0.0690 os         1 37M      -0.301900
     41 CAB         -2.5110    -9.6070    -1.0990 c3         1 37M       0.121700
     42 OBY         -4.5590    -2.3890     1.0090 os         1 37M      -0.418900
     43 C           -4.9890    -1.2990     0.3850 c          1 37M       0.659100
     44 O           -4.5350    -0.8830    -0.6480 o          1 37M      -0.527000
     45 CA          -6.2450    -0.7440     1.0400 c6         1 37M       0.052700
     46 CB          -7.4300    -1.3110     0.2490 c6         1 37M      -0.084400
     47 CBI         -8.7250    -0.5820     0.5510 c6         1 37M      -0.074400
     48 CBJ         -8.5310     0.8790     0.1960 c6         1 37M      -0.088400
     49 CBQ         -7.4230     1.4970     1.0280 c6         1 37M       0.108000
     50 N           -6.1870     0.7140     1.0270 n          1 37M      -0.451800
     51 CCD         -5.0360     1.2300     1.5380 c          1 37M       0.661100
     52 OAI         -4.1310     0.4930     1.8990 o          1 37M      -0.585100
     53 CDA         -4.8570     2.7460     1.5560 c3         1 37M      -0.080400
     54 CCX         -3.7250     3.1750     2.5100 c6         1 37M      -0.012500
     55 CBN         -3.4160     4.6650     2.3570 c6         1 37M      -0.071400
     56 CBH         -2.5130     5.1570     3.4810 c6         1 37M      -0.073400
     57 CBG         -3.2060     5.0150     4.8300 c6         1 37M      -0.043200
     58 CAM         -3.8790     3.6830     4.9590 c2         1 37M      -0.173200
     59 CAN         -4.0880     2.8570     3.9360 c2         1 37M      -0.163200
     60 CCI         -4.6010     3.1900     0.1300 ca         1 37M      -0.014300
     61 CBE         -5.3500     4.2230    -0.4170 ca         1 37M      -0.236500
     62 CBD         -3.5970     2.5770    -0.6110 ca         1 37M      -0.236500
     63 CCL         -3.3430     3.0030    -1.9120 ca         1 37M       0.160600
     64 OBU         -2.4010     2.4730    -2.7110 os         1 37M      -0.301900
     65 CAC         -1.5580     1.4740    -2.1720 c3         1 37M       0.119700
     66 CCQ         -4.0870     4.0480    -2.4680 ca         1 37M       0.022100
     67 OBW         -3.8120     4.4840    -3.7260 os         1 37M      -0.303900
     68 CAE         -4.5540     3.8310    -4.7460 c3         1 37M       0.126700
     69 CCM         -5.0990     4.6520    -1.7190 ca         1 37M       0.160600
     70 OBV         -5.7680     5.6430    -2.3350 os         1 37M      -0.301900
     71 CAD         -6.8130     6.2860    -1.6330 c3         1 37M       0.119700
     72 H2           9.1990    -0.4860    -0.9150 ha         1 37M       0.140000
     73 H3           8.4300    -2.7590    -1.3410 ha         1 37M       0.133000
     74 H4           4.5260    -1.2210    -2.4690 ha         1 37M       0.161000
     75 H5           8.0430     4.4710    -0.9080 ha         1 37M       0.156000
     76 H7           6.3600     6.1870    -1.3570 ha         1 37M       0.131000
     77 H8           4.2400     6.5860    -2.0280 ho         1 37M       0.428000
     78 H10          2.5420     3.8680    -2.9010 h1         1 37M       0.068200
     79 H11          3.2060     2.3630    -3.4840 h1         1 37M       0.068200
     80 H12          2.3330     2.7310    -0.6800 hn         1 37M       0.314500
     81 H13          2.3690    -0.0570     0.1190 h1         1 37M       0.056700
     82 H14          1.1230     1.1850     0.2730 h1         1 37M       0.056700
     83 H15         -1.5900    -1.8590    -1.1220 ha         1 37M       0.148000
     84 H16          1.0040    -0.3930     1.9720 ha         1 37M       0.142000
     85 H17         -0.4600    -1.3900     3.6500 ha         1 37M       0.129000
     86 H18         -2.4900    -2.6160     2.9990 ha         1 37M       0.133000
     87 H19         -3.4820    -3.0730    -0.6250 h1         1 37M       0.064700
     88 H20         -2.5820    -5.0120     0.5710 hc         1 37M       0.060700
     89 H21         -3.3790    -4.5370     2.0550 hc         1 37M       0.060700
     90 H22         -5.6090    -4.7530     0.9310 hc         1 37M       0.047700
     91 H23         -4.8120    -5.2030    -0.5640 hc         1 37M       0.047700
     92 H24         -3.4720    -7.3350    -0.6360 ha         1 37M       0.139000
     93 H25         -5.9440    -6.3550     2.7020 ha         1 37M       0.130000
     94 H26         -5.8360    -8.6650     3.4830 ha         1 37M       0.133000
     95 H27         -6.2050   -10.9510     3.3240 h1         1 37M       0.036367
     96 H28         -4.9020   -12.1410     3.4860 h1         1 37M       0.036367
     97 H29         -4.7590   -10.5600     4.2780 h1         1 37M       0.036367
     98 H30         -3.1660    -9.2550    -1.9010 h1         1 37M       0.040700
     99 H31         -1.7500    -8.8450    -0.9070 h1         1 37M       0.040700
    100 H32         -2.0190   -10.5200    -1.4250 h1         1 37M       0.040700
    101 H33         -6.3110    -1.1060     2.0720 h1         1 37M       0.069700
    102 H34         -7.2310    -1.2300    -0.8230 hc         1 37M       0.060200
    103 H35         -7.5070    -2.3750     0.4820 hc         1 37M       0.060200
    104 H36         -9.5400    -1.0180    -0.0290 hc         1 37M       0.044700
    105 H37         -8.9930    -0.6860     1.6070 hc         1 37M       0.044700
    106 H38         -8.2920     0.9680    -0.8680 hc         1 37M       0.052700
    107 H39         -9.4370     1.4610     0.3700 hc         1 37M       0.052700
    108 H40         -7.2140     2.4900     0.6340 h1         1 37M       0.042700
    109 H41         -7.7830     1.6230     2.0560 h1         1 37M       0.042700
    110 H42         -5.7710     3.2340     1.9070 hc         1 37M       0.060700
    111 H43         -2.8280     2.6070     2.2400 hc         1 37M       0.086700
    112 H44         -2.9510     4.8510     1.3870 hc         1 37M       0.043700
    113 H45         -4.3490     5.2420     2.3690 hc         1 37M       0.043700
    114 H46         -1.5870     4.5730     3.4840 hc         1 37M       0.044700
    115 H47         -2.2260     6.1960     3.3090 hc         1 37M       0.044700
    116 H48         -2.4890     5.1450     5.6460 hc         1 37M       0.042700
    117 H49         -3.9470     5.8120     4.9620 hc         1 37M       0.042700
    118 H50         -4.1970     3.3810     5.9510 ha         1 37M       0.116000
    119 H51         -4.5510     1.8960     4.1360 ha         1 37M       0.125000
    120 H52         -6.1140     4.6900     0.1900 ha         1 37M       0.146500
    121 H53         -3.0330     1.7630    -0.1760 ha         1 37M       0.146500
    122 H54         -0.8600     1.1980    -2.9580 h1         1 37M       0.045033
    123 H55         -0.9970     1.8520    -1.3130 h1         1 37M       0.045033
    124 H56         -2.1180     0.5860    -1.8650 h1         1 37M       0.045033
    125 H57         -4.3730     2.7530    -4.7530 h1         1 37M       0.031367
    126 H58         -5.6280     4.0040    -4.6410 h1         1 37M       0.031367
    127 H59         -4.2270     4.2450    -5.6990 h1         1 37M       0.031367
    128 H60         -7.2230     7.0330    -2.3080 h1         1 37M       0.045033
    129 H61         -7.6070     5.5890    -1.3550 h1         1 37M       0.045033
    130 H62         -6.4520     6.7880    -0.7320 h1         1 37M       0.045033
    131 C1          11.3340     2.5250    -1.6940 ca         1 37M      -0.156000
    132 C2          11.7700     2.7730    -0.4000 ca         1 37M      -0.147000
    133 C3          10.8770     2.6850     0.6570 ca         1 37M      -0.106000
    134 C4           9.5420     2.3530     0.4450 ca         1 37M      -0.115600
    135 C5           9.1110     2.1030    -0.8580 ca         1 37M      -0.070000
    136 C6          10.0070     2.1910    -1.9210 ca         1 37M      -0.139000
    137 O2           7.4030     1.9350     1.2960 o          1 37M      -0.804800
    138 O1           9.0060     2.4980     2.7420 o          1 37M      -0.804800
    139 H65         12.8050     3.0310    -0.2150 ha         1 37M       0.112000
    140 H66         11.2130     2.8760     1.6670 ha         1 37M       0.153000
    141 H67          9.6650     1.9970    -2.9300 ha         1 37M       0.119000
    142 C7           8.5670     2.2540     1.6050 c          1 37M       0.918200
    143 H64         12.0220     2.5890    -2.5270 ha         1 37M       0.112000
@<TRIPOS>BOND
     1     1     2 2   
     2     1    11 1   
     3     1   135 1   
     4     2     3 1   
     5     2     8 1   
     6     3     4 2   
     7     3    72 1   
     8     4     5 1   
     9     4    73 1   
    10     5     6 2   
    11     5     7 1   
    12     7     8 2   
    13     7    74 1   
    14     8     9 1   
    15     9    10 1   
    16    10    11 ar  
    17    10    16 ar  
    18    11    12 ar  
    19    12    13 ar  
    20    12    75 1   
    21    13    14 ar  
    22    13    76 1   
    23    14    15 1   
    24    14    16 ar  
    25    15    77 1   
    26    16    17 1   
    27    17    18 1   
    28    17    78 1   
    29    17    79 1   
    30    18    19 1   
    31    18    80 1   
    32    19    20 2   
    33    19    21 1   
    34    21    22 1   
    35    21    81 1   
    36    21    82 1   
    37    22    23 1   
    38    23    24 ar  
    39    23    25 ar  
    40    24    28 ar  
    41    24    83 1   
    42    25    26 ar  
    43    25    84 1   
    44    26    27 ar  
    45    26    85 1   
    46    27    28 ar  
    47    27    86 1   
    48    28    29 1   
    49    29    30 1   
    50    29    42 1   
    51    29    87 1   
    52    30    31 1   
    53    30    88 1   
    54    30    89 1   
    55    31    32 1   
    56    31    90 1   
    57    31    91 1   
    58    32    33 ar  
    59    32    34 ar  
    60    33    39 ar  
    61    33    92 1   
    62    34    35 ar  
    63    34    93 1   
    64    35    36 ar  
    65    35    94 1   
    66    36    37 1   
    67    36    39 ar  
    68    37    38 1   
    69    38    95 1   
    70    38    96 1   
    71    38    97 1   
    72    39    40 1   
    73    40    41 1   
    74    41    98 1   
    75    41    99 1   
    76    41   100 1   
    77    42    43 1   
    78    43    44 2   
    79    43    45 1   
    80    45    46 1   
    81    45    50 1   
    82    45   101 1   
    83    46    47 1   
    84    46   102 1   
    85    46   103 1   
    86    47    48 1   
    87    47   104 1   
    88    47   105 1   
    89    48    49 1   
    90    48   106 1   
    91    48   107 1   
    92    49    50 1   
    93    49   108 1   
    94    49   109 1   
    95    50    51 1   
    96    51    52 2   
    97    51    53 1   
    98    53    54 1   
    99    53    60 1   
   100    53   110 1   
   101    54    55 1   
   102    54    59 1   
   103    54   111 1   
   104    55    56 1   
   105    55   112 1   
   106    55   113 1   
   107    56    57 1   
   108    56   114 1   
   109    56   115 1   
   110    57    58 1   
   111    57   116 1   
   112    57   117 1   
   113    58    59 2   
   114    58   118 1   
   115    59   119 1   
   116    60    61 ar  
   117    60    62 ar  
   118    61    69 ar  
   119    61   120 1   
   120    62    63 ar  
   121    62   121 1   
   122    63    64 1   
   123    63    66 ar  
   124    64    65 1   
   125    65   122 1   
   126    65   123 1   
   127    65   124 1   
   128    66    67 1   
   129    66    69 ar  
   130    67    68 1   
   131    68   125 1   
   132    68   126 1   
   133    68   127 1   
   134    69    70 1   
   135    70    71 1   
   136    71   128 1   
   137    71   129 1   
   138    71   130 1   
   139   131   132 ar  
   140   131   136 ar  
   141   131   143 1   
   142   132   133 ar  
   143   132   139 1   
   144   133   134 ar  
   145   133   140 1   
   146   134   135 ar  
   147   134   142 1   
   148   135   136 ar  
   149   136   141 1   
   150   137   142 1   
   151   138   142 1   
@<TRIPOS>SUBSTRUCTURE
     1 37M         1 TEMP              0 ****  ****    0 ROOT
