@<TRIPOS>MOLECULE
37N
   41    43     1     0     0
SMALL
No Charge or Current Charge


@<TRIPOS>ATOM
      1 CAP         -4.9360     0.5550     0.1690 c3         1 37N      -0.136400
      2 CAK         -4.0570    -0.6580     0.0350 cc         1 37N       0.189300
      3 CAJ         -2.7090    -0.8530     0.1940 cd         1 37N      -0.147000
      4 CAB         -1.6600     0.1780     0.3880 ca         1 37N      -0.040000
      5 CAC         -0.4620    -0.1460     1.0550 ca         1 37N      -0.142000
      6 CAD          0.5590     0.8010     1.2080 ca         1 37N       0.178000
      7 NAQ          1.7410     0.4240     1.8370 nu         1 37N      -0.844100
      8 SAR          3.2090     0.1940     1.0530 sy         1 37N       1.128600
      9 CAS          2.8150    -0.9510    -0.2750 ca         1 37N      -0.298500
     10 CAT          2.3220    -0.4590    -1.5020 ca         1 37N      -0.009500
     11 CAU          1.9750    -1.3540    -2.5290 ca         1 37N      -0.138000
     12 CAV          2.1150    -2.7390    -2.3370 ca         1 37N      -0.069000
     13 CAW          2.6010    -3.2300    -1.1140 ca         1 37N      -0.138000
     14 CAX          2.9490    -2.3420    -0.0810 ca         1 37N      -0.009500
     15 OAY          3.5440     1.5140     0.5120 o          1 37N      -0.537000
     16 OAZ          4.0270    -0.4730     2.0690 o          1 37N      -0.537000
     17 CAE          0.3860     2.1020     0.7100 ca         1 37N      -0.042000
     18 CAF         -0.8120     2.4690     0.0590 ca         1 37N      -0.134600
     19 CAG         -0.9960     3.8770    -0.4770 c          1 37N       0.713600
     20 OAH         -0.0950     4.6870    -0.3120 o          1 37N      -0.708000
     21 OAI         -2.0400     4.1530    -1.0510 o          1 37N      -0.708000
     22 CAA         -1.8260     1.4950    -0.0950 ca         1 37N      -0.067000
     23 CAN         -2.5270    -2.2410    -0.0580 cd         1 37N       0.287300
     24 CAO         -1.2310    -3.0060    -0.1650 c3         1 37N      -0.130400
     25 NAM         -3.6600    -2.8820    -0.2800 nc         1 37N      -0.395300
     26 OAL         -4.6660    -1.8650    -0.2060 os         1 37N      -0.087700
     27 H1          -5.9500     0.2700     0.4730 hc         1 37N       0.064367
     28 H2          -4.5450     1.2430     0.9270 hc         1 37N       0.064367
     29 H3          -5.0110     1.0900    -0.7850 hc         1 37N       0.064367
     30 H4          -0.3200    -1.1370     1.4700 ha         1 37N       0.091000
     31 H5           1.6660    -0.4140     2.3980 hn         1 37N       0.471000
     32 H6           2.1980     0.6120    -1.6590 ha         1 37N       0.140000
     33 H7           1.5930    -0.9730    -3.4730 ha         1 37N       0.113500
     34 H8           1.8430    -3.4290    -3.1320 ha         1 37N       0.107000
     35 H9           2.7050    -4.3020    -0.9630 ha         1 37N       0.113500
     36 H10          3.3170    -2.7390     0.8640 ha         1 37N       0.140000
     37 H11          1.1860     2.8260     0.8380 ha         1 37N       0.161000
     38 H13         -2.7290     1.7610    -0.6340 ha         1 37N       0.136000
     39 H14         -0.8810    -3.3260     0.8230 hc         1 37N       0.052033
     40 H15         -1.3470    -3.9050    -0.7820 hc         1 37N       0.052033
     41 H16         -0.4490    -2.3950    -0.6290 hc         1 37N       0.052033
@<TRIPOS>BOND
     1     1     2 1   
     2     1    27 1   
     3     1    28 1   
     4     1    29 1   
     5     2     3 2   
     6     2    26 1   
     7     3     4 1   
     8     3    23 1   
     9     4     5 ar  
    10     4    22 ar  
    11     5     6 ar  
    12     5    30 1   
    13     6     7 1   
    14     6    17 ar  
    15     7     8 1   
    16     7    31 1   
    17     8     9 1   
    18     8    15 2   
    19     8    16 2   
    20     9    10 ar  
    21     9    14 ar  
    22    10    11 ar  
    23    10    32 1   
    24    11    12 ar  
    25    11    33 1   
    26    12    13 ar  
    27    12    34 1   
    28    13    14 ar  
    29    13    35 1   
    30    14    36 1   
    31    17    18 ar  
    32    17    37 1   
    33    18    19 1   
    34    18    22 ar  
    35    19    20 1   
    36    19    21 1   
    37    22    38 1   
    38    23    24 1   
    39    23    25 2   
    40    24    39 1   
    41    24    40 1   
    42    24    41 1   
    43    25    26 1   
@<TRIPOS>SUBSTRUCTURE
     1 37N         1 TEMP              0 ****  ****    0 ROOT
