@<TRIPOS>MOLECULE
37N
   41    43     1     0     0
SMALL
abcg2


@<TRIPOS>ATOM
      1 CAP         -4.8880     0.4500     0.6370 c3         1 37N      -0.136400
      2 CAK         -4.0210    -0.6490     0.1550 cc         1 37N       0.189300
      3 CAJ         -2.6750    -0.7720    -0.0030 cd         1 37N      -0.147000
      4 CAB         -1.6360     0.2300     0.2430 ca         1 37N      -0.040000
      5 CAC         -0.4590    -0.1200     0.9020 ca         1 37N      -0.142000
      6 CAD          0.5160     0.8380     1.1430 ca         1 37N       0.178000
      7 NAQ          1.6990     0.4790     1.8450 nu         1 37N      -0.844100
      8 SAR          3.1020     0.2640     0.9770 sy         1 37N       1.128600
      9 CAS          2.7670    -1.0130    -0.2030 ca         1 37N      -0.298500
     10 CAT          2.3210    -0.6680    -1.4720 ca         1 37N      -0.009500
     11 CAU          2.0440    -1.6770    -2.3820 ca         1 37N      -0.138000
     12 CAV          2.2060    -3.0070    -2.0210 ca         1 37N      -0.069000
     13 CAW          2.6430    -3.3380    -0.7440 ca         1 37N      -0.138000
     14 CAX          2.9260    -2.3400     0.1750 ca         1 37N      -0.009500
     15 OAY          3.3470     1.4930     0.2450 o          1 37N      -0.537000
     16 OAZ          4.0770    -0.2230     1.9370 o          1 37N      -0.537000
     17 CAE          0.3330     2.1500     0.7310 ca         1 37N      -0.042000
     18 CAF         -0.8260     2.5110     0.0550 ca         1 37N      -0.134600
     19 CAG         -1.0320     3.9510    -0.4080 c          1 37N       0.713600
     20 OAH         -0.1410     4.7650    -0.1010 o          1 37N      -0.708000
     21 OAI         -2.0730     4.1820    -1.0510 o          1 37N      -0.708000
     22 CAA         -1.7970     1.5470    -0.1860 ca         1 37N      -0.067000
     23 CAN         -2.5190    -2.1030    -0.4940 cd         1 37N       0.287300
     24 CAO         -1.2600    -2.8060    -0.8620 c3         1 37N      -0.130400
     25 NAM         -3.6720    -2.6920    -0.6170 nc         1 37N      -0.395300
     26 OAL         -4.6110    -1.7890    -0.2070 os         1 37N      -0.087700
     27 H1          -5.6840     0.0720     1.2770 hc         1 37N       0.064367
     28 H2          -4.3010     1.1690     1.2050 hc         1 37N       0.064367
     29 H3          -5.3530     0.9820    -0.1950 hc         1 37N       0.064367
     30 H4          -0.3080    -1.1350     1.2480 ha         1 37N       0.091000
     31 H5           1.5720    -0.2650     2.5250 hn         1 37N       0.471000
     32 H6           2.1990     0.3680    -1.7580 ha         1 37N       0.140000
     33 H7           1.7010    -1.4190    -3.3750 ha         1 37N       0.113500
     34 H8           1.9910    -3.7900    -2.7360 ha         1 37N       0.107000
     35 H9           2.7700    -4.3750    -0.4630 ha         1 37N       0.113500
     36 H10          3.2770    -2.6020     1.1650 ha         1 37N       0.140000
     37 H11          1.0840     2.8970     0.9460 ha         1 37N       0.161000
     38 H13         -2.6890     1.8310    -0.7290 ha         1 37N       0.136000
     39 H14         -0.7140    -3.1250     0.0270 hc         1 37N       0.052033
     40 H15         -1.4700    -3.6910    -1.4600 hc         1 37N       0.052033
     41 H16         -0.6000    -2.1510    -1.4270 hc         1 37N       0.052033
@<TRIPOS>BOND
     1     1     2 1   
     2     1    27 1   
     3     1    28 1   
     4     1    29 1   
     5     2     3 2   
     6     2    26 1   
     7     3     4 1   
     8     3    23 1   
     9     4     5 ar  
    10     4    22 ar  
    11     5     6 ar  
    12     5    30 1   
    13     6     7 1   
    14     6    17 ar  
    15     7     8 1   
    16     7    31 1   
    17     8     9 1   
    18     8    15 2   
    19     8    16 2   
    20     9    10 ar  
    21     9    14 ar  
    22    10    11 ar  
    23    10    32 1   
    24    11    12 ar  
    25    11    33 1   
    26    12    13 ar  
    27    12    34 1   
    28    13    14 ar  
    29    13    35 1   
    30    14    36 1   
    31    17    18 ar  
    32    17    37 1   
    33    18    19 1   
    34    18    22 ar  
    35    19    20 1   
    36    19    21 1   
    37    22    38 1   
    38    23    24 1   
    39    23    25 2   
    40    24    39 1   
    41    24    40 1   
    42    24    41 1   
    43    25    26 1   
@<TRIPOS>SUBSTRUCTURE
     1 37N         1 TEMP              0 ****  ****    0 ROOT
