@<TRIPOS>MOLECULE
37O
   87    92     1     0     0
SMALL
bcc


@<TRIPOS>ATOM
      1 C01         -0.3630     2.5800     0.1170 ca         1 37O       0.509200
      2 N02         -1.4440     1.8300    -0.0770 nb         1 37O      -0.777000
      3 C03         -1.2720     0.7520    -0.8310 ca         1 37O       0.946900
      4 N04         -0.1150     0.3550    -1.3730 nb         1 37O      -0.824000
      5 C05          0.9420     1.1040    -1.1460 ca         1 37O       0.643200
      6 C06          0.8740     2.2860    -0.4030 ca         1 37O      -0.441900
      7 N07          2.1480     0.6910    -1.6670 n          1 37O      -0.461300
      8 C08          3.3530     1.2540    -1.2540 c          1 37O       0.838500
      9 N09          3.2770     2.3460    -0.4510 n          1 37O      -0.406000
     10 C10          2.0770     3.1530    -0.2820 c6         1 37O       0.192300
     11 N11         -2.3190    -0.0700    -1.0990 nu         1 37O      -0.731300
     12 C12         -3.6480    -0.0100    -0.6710 ca         1 37O       0.141600
     13 C13         -4.3080     1.1650    -0.3030 ca         1 37O      -0.132000
     14 C14         -5.6340     1.1300     0.0890 ca         1 37O      -0.151500
     15 C15         -6.3740    -0.0590     0.1140 ca         1 37O       0.130600
     16 C16         -5.7110    -1.2230    -0.2800 ca         1 37O      -0.151500
     17 C17         -4.3740    -1.1980    -0.6500 ca         1 37O      -0.132000
     18 N18         -7.7010    -0.0490     0.5550 nh         1 37O      -0.648000
     19 C19         -8.3510    -1.3220     0.7840 c6         1 37O       0.196300
     20 C20         -9.6100    -1.1220     1.6090 c6         1 37O       0.158300
     21 N21        -10.5150    -0.1950     0.9640 n3         1 37O      -0.715600
     22 C22         -9.8560     1.0780     0.7520 c6         1 37O       0.158300
     23 C23         -8.6020     0.9010    -0.0810 c6         1 37O       0.196300
     24 C24        -11.7450    -0.0430     1.7050 c3         1 37O       0.153100
     25 C25          4.5000     2.9520    -0.0460 ca         1 37O       0.115600
     26 C26          5.1410     3.8330    -0.9010 ca         1 37O      -0.193500
     27 C27          6.3130     4.4540    -0.4730 ca         1 37O       0.183600
     28 C28          6.8270     4.1970     0.7980 ca         1 37O      -0.301000
     29 C29          6.1570     3.3120     1.6410 ca         1 37O       0.183600
     30 C30          4.9860     2.6830     1.2210 ca         1 37O      -0.193500
     31 O31          6.5760     3.0080     2.8810 os         1 37O      -0.315400
     32 O32          6.8890     5.2920    -1.3520 os         1 37O      -0.315400
     33 C33          7.7660     3.5990     3.3680 c3         1 37O       0.126700
     34 C34          8.0980     5.9350    -0.9970 c3         1 37O       0.126700
     35 O35          4.4180     0.7620    -1.5770 o          1 37O      -0.630500
     36 C36          2.1790    -0.4960    -2.5210 c3         1 37O       0.168300
     37 C37          2.0320    -1.7960    -1.7720 ca         1 37O      -0.130300
     38 C38          2.9870    -2.2240    -0.8570 ca         1 37O      -0.077500
     39 C39          2.8630    -3.4260    -0.1740 ca         1 37O      -0.178000
     40 C40          1.7570    -4.2460    -0.4070 ca         1 37O       0.081600
     41 C41          0.8000    -3.8280    -1.3350 ca         1 37O      -0.178000
     42 C42          0.9370    -2.6220    -1.9980 ca         1 37O      -0.077500
     43 N43          1.5380    -5.4760     0.2160 ns         1 37O      -0.477100
     44 C44          2.2190    -6.0670     1.2350 c          1 37O       0.672100
     45 C45          1.6030    -7.3740     1.6900 c3         1 37O      -0.159400
     46 C46          2.5260    -8.2060     2.5610 c3         1 37O      -0.077100
     47 O47          3.2150    -5.5920     1.7490 o          1 37O      -0.573100
     48 H1          -0.4980     3.4720     0.7220 h4         1 37O       0.023100
     49 H2           2.0600     3.9590    -1.0250 h1         1 37O       0.053200
     50 H3           2.1150     3.6240     0.7010 h1         1 37O       0.053200
     51 H4          -2.0550    -0.9060    -1.5970 hn         1 37O       0.452800
     52 H5          -3.7860     2.1080    -0.3030 ha         1 37O       0.143000
     53 H6          -6.0950     2.0590     0.3990 ha         1 37O       0.133000
     54 H7          -6.2240    -2.1750    -0.3040 ha         1 37O       0.133000
     55 H8          -3.8960    -2.1270    -0.9370 ha         1 37O       0.143000
     56 H9          -8.6080    -1.8310    -0.1580 h1         1 37O       0.042950
     57 H10        -10.1090    -2.0870     1.7280 h1         1 37O       0.039200
     58 H11        -10.5370     1.7510     0.2260 h1         1 37O       0.039200
     59 H12         -8.1170     1.8690    -0.1880 h1         1 37O       0.042950
     60 H13        -11.5970     0.3680     2.7160 h1         1 37O       0.031033
     61 H14        -12.4250     0.6220     1.1710 h1         1 37O       0.031033
     62 H15        -12.2390    -1.0100     1.8120 h1         1 37O       0.031033
     63 H16          4.7470     4.0360    -1.8890 ha         1 37O       0.158000
     64 H17          7.7350     4.6830     1.1250 ha         1 37O       0.140000
     65 H18          4.4670     1.9960     1.8760 ha         1 37O       0.158000
     66 H19          7.9040     3.2250     4.3790 h1         1 37O       0.041367
     67 H20          8.6350     3.3190     2.7670 h1         1 37O       0.041367
     68 H21          7.6960     4.6890     3.4030 h1         1 37O       0.041367
     69 H22          8.3860     6.5410    -1.8530 h1         1 37O       0.041367
     70 H23          7.9760     6.5880    -0.1300 h1         1 37O       0.041367
     71 H24          8.8960     5.2170    -0.7890 h1         1 37O       0.041367
     72 H25          1.3780    -0.3980    -3.2520 h1         1 37O       0.073200
     73 H26          3.1170    -0.4740    -3.0700 h1         1 37O       0.073200
     74 H27          3.8630    -1.6170    -0.6670 ha         1 37O       0.139500
     75 H28          3.6310    -3.7170     0.5230 ha         1 37O       0.144000
     76 H29         -0.0650    -4.4510    -1.5330 ha         1 37O       0.144000
     77 H30          0.1710    -2.3170    -2.7010 ha         1 37O       0.139500
     78 H31          0.7230    -5.9740    -0.1110 hn         1 37O       0.311500
     79 H32          0.6850    -7.1330     2.2360 hc         1 37O       0.055700
     80 H33          1.2820    -7.9470     0.8160 hc         1 37O       0.055700
     81 H34          3.4420    -8.4730     2.0350 hc         1 37O       0.044367
     82 H35          2.8030    -7.6790     3.4730 hc         1 37O       0.044367
     83 H36          2.0280    -9.1300     2.8510 hc         1 37O       0.044367
     84 H37         -7.6800    -1.9800     1.3390 h1         1 37O       0.042950
     85 H38         -9.3250    -0.7780     2.6190 h1         1 37O       0.039200
     86 H39         -9.5870     1.5640     1.7070 h1         1 37O       0.039200
     87 H40         -8.8780     0.5600    -1.0900 h1         1 37O       0.042950
@<TRIPOS>BOND
     1     1     2 ar  
     2     1     6 ar  
     3     1    48 1   
     4     2     3 ar  
     5     3     4 ar  
     6     3    11 1   
     7     4     5 ar  
     8     5     6 ar  
     9     5     7 1   
    10     6    10 1   
    11     7     8 1   
    12     7    36 1   
    13     8     9 1   
    14     8    35 2   
    15     9    10 1   
    16     9    25 1   
    17    10    49 1   
    18    10    50 1   
    19    11    12 1   
    20    11    51 1   
    21    12    13 ar  
    22    12    17 ar  
    23    13    14 ar  
    24    13    52 1   
    25    14    15 ar  
    26    14    53 1   
    27    15    16 ar  
    28    15    18 1   
    29    16    17 ar  
    30    16    54 1   
    31    17    55 1   
    32    18    19 1   
    33    18    23 1   
    34    19    20 1   
    35    19    56 1   
    36    19    84 1   
    37    20    21 1   
    38    20    57 1   
    39    20    85 1   
    40    21    22 1   
    41    21    24 1   
    42    22    23 1   
    43    22    58 1   
    44    22    86 1   
    45    23    59 1   
    46    23    87 1   
    47    24    60 1   
    48    24    61 1   
    49    24    62 1   
    50    25    26 ar  
    51    25    30 ar  
    52    26    27 ar  
    53    26    63 1   
    54    27    28 ar  
    55    27    32 1   
    56    28    29 ar  
    57    28    64 1   
    58    29    30 ar  
    59    29    31 1   
    60    30    65 1   
    61    31    33 1   
    62    32    34 1   
    63    33    66 1   
    64    33    67 1   
    65    33    68 1   
    66    34    69 1   
    67    34    70 1   
    68    34    71 1   
    69    36    37 1   
    70    36    72 1   
    71    36    73 1   
    72    37    38 ar  
    73    37    42 ar  
    74    38    39 ar  
    75    38    74 1   
    76    39    40 ar  
    77    39    75 1   
    78    40    41 ar  
    79    40    43 1   
    80    41    42 ar  
    81    41    76 1   
    82    42    77 1   
    83    43    44 1   
    84    43    78 1   
    85    44    45 1   
    86    44    47 2   
    87    45    46 1   
    88    45    79 1   
    89    45    80 1   
    90    46    81 1   
    91    46    82 1   
    92    46    83 1   
@<TRIPOS>SUBSTRUCTURE
     1 37O         1 TEMP              0 ****  ****    0 ROOT
