@<TRIPOS>MOLECULE
37O
   87    92     1     0     0
SMALL
No Charge or Current Charge


@<TRIPOS>ATOM
      1 C01         -0.3560     2.0190     1.1020 ca         1 37O       0.180900
      2 N02         -1.4970     1.4220     0.7130 nb         1 37O      -0.251000
      3 C03         -1.3860     0.4980    -0.2560 ca         1 37O       0.420900
      4 N04         -0.2550     0.0980    -0.8560 nb         1 37O      -0.298000
      5 C05          0.8890     0.6940    -0.4610 ca         1 37O       0.314900
      6 C06          0.8770     1.6810     0.5240 ca         1 37O      -0.311300
      7 N07          2.1190     0.3440    -1.0990 n          1 37O      -0.394300
      8 C08          3.3030     1.0870    -0.8880 c          1 37O       0.629000
      9 N09          3.2840     2.1660     0.0370 n          1 37O      -0.246400
     10 C10          2.1670     2.3130     0.9920 c6         1 37O       0.192300
     11 N11         -2.5250    -0.1730    -0.6780 nu         1 37O      -0.924900
     12 C12         -3.8970    -0.0360    -0.4320 ca         1 37O       0.280000
     13 C13         -4.4850     1.1930    -0.0740 ca         1 37O      -0.114000
     14 C14         -5.8720     1.2840     0.1480 ca         1 37O      -0.133500
     15 C15         -6.7010     0.1550     0.0120 ca         1 37O       0.269000
     16 C16         -6.1110    -1.0720    -0.3580 ca         1 37O      -0.133500
     17 C17         -4.7240    -1.1620    -0.5830 ca         1 37O      -0.114000
     18 N18         -8.0930     0.2670     0.2430 nh         1 37O      -0.786400
     19 C19         -8.9120    -0.9160     0.6630 c6         1 37O       0.196300
     20 C20        -10.2470    -0.5060     1.3670 c6         1 37O       0.158300
     21 N21        -11.0580     0.4560     0.5610 n3         1 37O      -0.715600
     22 C22        -10.2320     1.6560     0.2270 c6         1 37O       0.158300
     23 C23         -8.8960     1.2920    -0.5010 c6         1 37O       0.196300
     24 C24        -12.3390     0.8070     1.2100 c3         1 37O       0.153100
     25 C25          4.3770     3.1000     0.1900 ca         1 37O       0.023000
     26 C26          5.1150     3.5420    -0.9270 ca         1 37O      -0.175500
     27 C27          6.2650     4.3300    -0.7760 ca         1 37O       0.183600
     28 C28          6.7310     4.6510     0.5130 ca         1 37O      -0.283000
     29 C29          6.0490     4.1540     1.6410 ca         1 37O       0.183600
     30 C30          4.9000     3.3670     1.4720 ca         1 37O      -0.175500
     31 O31          6.4740     4.3960     2.9310 os         1 37O      -0.338600
     32 O32          6.9020     4.7580    -1.9230 os         1 37O      -0.338600
     33 C33          7.6430     5.1820     3.2220 c3         1 37O       0.149900
     34 C34          8.0910     5.5670    -1.8870 c3         1 37O       0.149900
     35 O35          4.3290     0.8010    -1.4940 o          1 37O      -0.555000
     36 C36          2.1380    -0.7800    -2.0780 c3         1 37O       0.168300
     37 C37          2.1830    -2.1480    -1.4050 ca         1 37O      -0.130300
     38 C38          3.3440    -2.5670    -0.7290 ca         1 37O      -0.059500
     39 C39          3.3890    -3.8240    -0.1020 ca         1 37O      -0.160000
     40 C40          2.2700    -4.6840    -0.1400 ca         1 37O      -0.011000
     41 C41          1.1150    -4.2610    -0.8230 ca         1 37O      -0.160000
     42 C42          1.0680    -3.0040    -1.4500 ca         1 37O      -0.059500
     43 N43          2.2410    -5.9690     0.4670 ns         1 37O      -0.151000
     44 C44          3.1530    -6.6500     1.2650 c          1 37O       0.605100
     45 C45          2.6890    -8.0490     1.6970 c3         1 37O      -0.159400
     46 C46          3.4600    -9.1640     0.9560 c3         1 37O      -0.077100
     47 O47          4.2280    -6.1930     1.6370 o          1 37O      -0.573100
     48 H1          -0.4340     2.7660     1.8900 h4         1 37O       0.023100
     49 H2           1.9950     3.3830     1.1810 h1         1 37O       0.053200
     50 H3           2.4540     1.8500     1.9470 h1         1 37O       0.053200
     51 H4          -2.2900    -0.9910    -1.2380 hn         1 37O       0.508000
     52 H5          -3.8800     2.0890     0.0170 ha         1 37O       0.125000
     53 H6          -6.3010     2.2390     0.4360 ha         1 37O       0.115000
     54 H7          -6.7230    -1.9590    -0.4860 ha         1 37O       0.115000
     55 H8          -4.2930    -2.1170    -0.8700 ha         1 37O       0.125000
     56 H9          -9.1540    -1.5300    -0.2180 h1         1 37O       0.042950
     57 H10        -10.8280    -1.4180     1.5690 h1         1 37O       0.039200
     58 H11        -10.8020     2.3440    -0.4150 h1         1 37O       0.039200
     59 H12         -8.3190     2.2170    -0.6420 h1         1 37O       0.042950
     60 H13        -12.1670     1.3120     2.1700 h1         1 37O       0.031033
     61 H14        -12.9270     1.4780     0.5690 h1         1 37O       0.031033
     62 H15        -12.9380    -0.0940     1.3980 h1         1 37O       0.031033
     63 H16          4.7810     3.3010    -1.9320 ha         1 37O       0.140000
     64 H17          7.6190     5.2590     0.6370 ha         1 37O       0.122000
     65 H18          4.4180     2.9680     2.3600 ha         1 37O       0.140000
     66 H19          7.7960     5.2470     4.3070 h1         1 37O       0.041367
     67 H20          8.5390     4.7290     2.7790 h1         1 37O       0.041367
     68 H21          7.5340     6.2020     2.8330 h1         1 37O       0.041367
     69 H22          8.4290     5.7920    -2.9070 h1         1 37O       0.041367
     70 H23          7.9000     6.5190    -1.3760 h1         1 37O       0.041367
     71 H24          8.9040     5.0440    -1.3680 h1         1 37O       0.041367
     72 H25          1.2550    -0.7160    -2.7270 h1         1 37O       0.073200
     73 H26          2.9970    -0.6960    -2.7550 h1         1 37O       0.073200
     74 H27          4.2150    -1.9160    -0.6900 ha         1 37O       0.121500
     75 H28          4.3060    -4.1100     0.4030 ha         1 37O       0.126000
     76 H29          0.2420    -4.9090    -0.8670 ha         1 37O       0.126000
     77 H30          0.1620    -2.6980    -1.9700 ha         1 37O       0.121500
     78 H31          1.3950    -6.4890     0.2770 hn         1 37O       0.145000
     79 H32          2.8700    -8.1640     2.7720 hc         1 37O       0.055700
     80 H33          1.6190    -8.1740     1.4870 hc         1 37O       0.055700
     81 H34          3.3070    -9.0870    -0.1280 hc         1 37O       0.044367
     82 H35          4.5350    -9.0960     1.1590 hc         1 37O       0.044367
     83 H36          3.1120   -10.1520     1.2810 hc         1 37O       0.044367
     84 H37         -8.3380    -1.5480     1.3560 h1         1 37O       0.042950
     85 H38        -10.0010    -0.0630     2.3430 h1         1 37O       0.039200
     86 H39         -9.9850     2.2090     1.1460 h1         1 37O       0.039200
     87 H40         -9.1370     0.9090    -1.5040 h1         1 37O       0.042950
@<TRIPOS>BOND
     1     1     2 ar  
     2     1     6 ar  
     3     1    48 1   
     4     2     3 ar  
     5     3     4 ar  
     6     3    11 1   
     7     4     5 ar  
     8     5     6 ar  
     9     5     7 1   
    10     6    10 1   
    11     7     8 1   
    12     7    36 1   
    13     8     9 1   
    14     8    35 2   
    15     9    10 1   
    16     9    25 1   
    17    10    49 1   
    18    10    50 1   
    19    11    12 1   
    20    11    51 1   
    21    12    13 ar  
    22    12    17 ar  
    23    13    14 ar  
    24    13    52 1   
    25    14    15 ar  
    26    14    53 1   
    27    15    16 ar  
    28    15    18 1   
    29    16    17 ar  
    30    16    54 1   
    31    17    55 1   
    32    18    19 1   
    33    18    23 1   
    34    19    20 1   
    35    19    56 1   
    36    19    84 1   
    37    20    21 1   
    38    20    57 1   
    39    20    85 1   
    40    21    22 1   
    41    21    24 1   
    42    22    23 1   
    43    22    58 1   
    44    22    86 1   
    45    23    59 1   
    46    23    87 1   
    47    24    60 1   
    48    24    61 1   
    49    24    62 1   
    50    25    26 ar  
    51    25    30 ar  
    52    26    27 ar  
    53    26    63 1   
    54    27    28 ar  
    55    27    32 1   
    56    28    29 ar  
    57    28    64 1   
    58    29    30 ar  
    59    29    31 1   
    60    30    65 1   
    61    31    33 1   
    62    32    34 1   
    63    33    66 1   
    64    33    67 1   
    65    33    68 1   
    66    34    69 1   
    67    34    70 1   
    68    34    71 1   
    69    36    37 1   
    70    36    72 1   
    71    36    73 1   
    72    37    38 ar  
    73    37    42 ar  
    74    38    39 ar  
    75    38    74 1   
    76    39    40 ar  
    77    39    75 1   
    78    40    41 ar  
    79    40    43 1   
    80    41    42 ar  
    81    41    76 1   
    82    42    77 1   
    83    43    44 1   
    84    43    78 1   
    85    44    45 1   
    86    44    47 2   
    87    45    46 1   
    88    45    79 1   
    89    45    80 1   
    90    46    81 1   
    91    46    82 1   
    92    46    83 1   
@<TRIPOS>SUBSTRUCTURE
     1 37O         1 TEMP              0 ****  ****    0 ROOT
