@<TRIPOS>MOLECULE
37Q
   43    46     1     0     0
SMALL
No Charge or Current Charge


@<TRIPOS>ATOM
      1 C4          -1.6870    -5.0580    -0.9790 ca         1 37Q      -0.093500
      2 C5          -2.0970    -2.3860    -1.7350 ca         1 37Q      -0.133500
      3 C6          -2.2770    -4.1510    -0.0800 ca         1 37Q      -0.133500
      4 C7           3.1150     2.3230    -0.4130 ca         1 37Q      -0.133000
      5 C8           2.2720     3.2960    -0.9980 ca         1 37Q      -0.032000
      6 C10         -3.9310     0.0920     1.6130 ca         1 37Q       0.207900
      7 C13          5.1210    -1.2300     1.7310 ce         1 37Q      -0.307200
      8 C15          2.5690     1.2010     0.2740 ca         1 37Q      -0.011000
      9 C17          0.3700     2.0550    -0.2300 ca         1 37Q      -0.031200
     10 C20          4.7340     0.0130     0.9940 c          1 37Q       0.606300
     11 C1           6.4000    -1.6110     1.9760 c2         1 37Q      -0.227000
     12 C2          -1.2980    -4.6250    -2.2570 ca         1 37Q      -0.133000
     13 C3          -1.5070    -3.2890    -2.6370 ca         1 37Q      -0.093500
     14 C9           1.1660     1.0680     0.3650 ca         1 37Q      -0.150000
     15 C11         -2.8560     2.0720     1.1980 ca         1 37Q       0.209900
     16 C12         -1.2700     3.3650    -1.0070 cc         1 37Q       0.426700
     17 C14         -2.4750    -2.8060    -0.4430 ca         1 37Q       0.293000
     18 C16          0.8850     3.1340    -0.8900 ca         1 37Q       0.042400
     19 C18         -3.0380    -0.5740     0.7140 ca         1 37Q       0.607900
     20 C19         -1.9500     1.4170     0.3030 ca         1 37Q       0.476500
     21 N21         -3.8540     1.4270     1.8640 nb         1 37Q      -0.581000
     22 N22         -0.1210     3.9700    -1.3870 nd         1 37Q      -0.548100
     23 N23         -2.0520     0.0780     0.0720 nb         1 37Q      -0.752000
     24 N24         -3.0850    -1.9470     0.4790 nu         1 37Q      -0.938900
     25 N25          3.3610     0.1880     0.8810 ns         1 37Q      -0.149000
     26 N26         -0.9790     2.1990    -0.3100 na         1 37Q      -0.200100
     27 O27          5.5730     0.7850     0.5460 o          1 37Q      -0.581100
     28 H1          -1.5320    -6.0940    -0.6840 ha         1 37Q       0.119000
     29 H2          -2.2710    -1.3630    -2.0530 ha         1 37Q       0.127000
     30 H3          -2.5740    -4.4960     0.9060 ha         1 37Q       0.127000
     31 H4           4.1870     2.4600    -0.5060 ha         1 37Q       0.144000
     32 H5           2.6900     4.1520    -1.5220 ha         1 37Q       0.133000
     33 H6          -4.7130    -0.4580     2.1350 h4         1 37Q       0.033100
     34 H7           4.2940    -1.8470     2.0830 ha         1 37Q       0.178000
     35 H9           6.6310    -2.5290     2.5200 ha         1 37Q       0.178000
     36 H10          7.2550    -1.0200     1.6410 ha         1 37Q       0.178000
     37 H12         -0.8420    -5.3250    -2.9540 ha         1 37Q       0.116000
     38 H13         -1.2170    -2.9540    -3.6310 ha         1 37Q       0.119000
     39 H14          0.7130     0.2220     0.8790 ha         1 37Q       0.144000
     40 H15         -2.7710     3.1410     1.3880 h4         1 37Q       0.040100
     41 H16         -2.2800     3.7110    -1.1940 h5         1 37Q       0.066800
     42 H17         -3.6280    -2.4340     1.1890 hn         1 37Q       0.502000
     43 H18          2.8180    -0.5470     1.3140 hn         1 37Q       0.154000
@<TRIPOS>BOND
     1     1     3 ar  
     2     1    12 ar  
     3     1    28 1   
     4     2    13 ar  
     5     2    17 ar  
     6     2    29 1   
     7     3    17 ar  
     8     3    30 1   
     9     4     5 ar  
    10     4     8 ar  
    11     4    31 1   
    12     5    18 ar  
    13     5    32 1   
    14     6    19 ar  
    15     6    21 ar  
    16     6    33 1   
    17     7    10 1   
    18     7    11 2   
    19     7    34 1   
    20     8    14 ar  
    21     8    25 1   
    22     9    14 ar  
    23     9    18 ar  
    24     9    26 1   
    25    10    25 1   
    26    10    27 2   
    27    11    35 1   
    28    11    36 1   
    29    12    13 ar  
    30    12    37 1   
    31    13    38 1   
    32    14    39 1   
    33    15    20 ar  
    34    15    21 ar  
    35    15    40 1   
    36    16    22 2   
    37    16    26 1   
    38    16    41 1   
    39    17    24 1   
    40    18    22 1   
    41    19    23 ar  
    42    19    24 1   
    43    20    23 ar  
    44    20    26 1   
    45    24    42 1   
    46    25    43 1   
@<TRIPOS>SUBSTRUCTURE
     1 37Q         1 TEMP              0 ****  ****    0 ROOT
