@<TRIPOS>MOLECULE
37Q
   43    46     1     0     0
SMALL
bcc


@<TRIPOS>ATOM
      1 C4          -0.4460    -4.3780     0.5460 ca         1 37Q      -0.111500
      2 C5          -0.7740    -2.0270    -0.8950 ca         1 37Q      -0.151500
      3 C6          -1.6170    -3.6470     0.6710 ca         1 37Q      -0.151500
      4 C7           2.8430     2.1050    -0.0170 ca         1 37Q      -0.151000
      5 C8           2.1830     3.3060    -0.1970 ca         1 37Q      -0.050000
      6 C10         -4.4800     0.0910     0.4030 ca         1 37Q       0.207900
      7 C13          4.2110    -2.1790     0.2310 ce         1 37Q      -0.257200
      8 C15          2.1210     0.9180     0.2050 ca         1 37Q       0.081600
      9 C17          0.0880     2.1350     0.0710 ca         1 37Q      -0.031200
     10 C20          3.9200    -0.7630    -0.1100 c          1 37Q       0.673300
     11 C1           5.3030    -2.7910    -0.2120 c2         1 37Q      -0.127000
     12 C2           0.5780    -3.9320    -0.2780 ca         1 37Q      -0.151000
     13 C3           0.4030    -2.7570    -0.9970 ca         1 37Q      -0.111500
     14 C9           0.7320     0.9220     0.2610 ca         1 37Q      -0.168000
     15 C11         -3.6330     2.2080     0.4290 ca         1 37Q       0.209900
     16 C12         -1.2590     3.8620    -0.1950 cc         1 37Q       0.426700
     17 C14         -1.7880    -2.4590    -0.0410 ca         1 37Q       0.154600
     18 C16          0.7930     3.3240    -0.1570 ca         1 37Q       0.042400
     19 C18         -3.1870    -0.4290     0.1840 ca         1 37Q       0.607900
     20 C19         -2.3700     1.6870     0.1840 ca         1 37Q       0.476500
     21 N21         -4.6720     1.3830     0.5240 nb         1 37Q      -0.581000
     22 N22         -0.0820     4.3780    -0.3170 nd         1 37Q      -0.548100
     23 N23         -2.1550     0.3900     0.0690 nb         1 37Q      -0.752000
     24 N24         -3.0010    -1.7730     0.1030 nu         1 37Q      -0.745300
     25 N25          2.7460    -0.3210     0.4110 ns         1 37Q      -0.475100
     26 N26         -1.2470     2.5080     0.0460 na         1 37Q      -0.200100
     27 O27          4.6620    -0.0780    -0.7930 o          1 37Q      -0.581100
     28 H1          -0.3320    -5.2970     1.1070 ha         1 37Q       0.137000
     29 H2          -0.8910    -1.1280    -1.4820 ha         1 37Q       0.145000
     30 H3          -2.4040    -3.9970     1.3290 ha         1 37Q       0.145000
     31 H4           3.9210     2.0900    -0.0380 ha         1 37Q       0.162000
     32 H5           2.7420     4.2170    -0.3640 ha         1 37Q       0.151000
     33 H6          -5.3390    -0.5650     0.4850 h4         1 37Q       0.033100
     34 H7           3.5020    -2.7140     0.8550 ha         1 37Q       0.128000
     35 H9           5.5040    -3.8230     0.0370 ha         1 37Q       0.128000
     36 H10          6.0280    -2.2840    -0.8350 ha         1 37Q       0.128000
     37 H12          1.4960    -4.4980    -0.3670 ha         1 37Q       0.134000
     38 H13          1.1810    -2.4050    -1.6620 ha         1 37Q       0.137000
     39 H14          0.1820     0.0080     0.4230 ha         1 37Q       0.162000
     40 H15         -3.8220     3.2650     0.5550 h4         1 37Q       0.040100
     41 H16         -2.1840     4.4110    -0.2860 h5         1 37Q       0.066800
     42 H17         -3.7900    -2.3360     0.3780 hn         1 37Q       0.446800
     43 H18          2.1830    -1.0060     0.8920 hn         1 37Q       0.320500
@<TRIPOS>BOND
     1     1     3 ar  
     2     1    12 ar  
     3     1    28 1   
     4     2    13 ar  
     5     2    17 ar  
     6     2    29 1   
     7     3    17 ar  
     8     3    30 1   
     9     4     5 ar  
    10     4     8 ar  
    11     4    31 1   
    12     5    18 ar  
    13     5    32 1   
    14     6    19 ar  
    15     6    21 ar  
    16     6    33 1   
    17     7    10 1   
    18     7    11 2   
    19     7    34 1   
    20     8    14 ar  
    21     8    25 1   
    22     9    14 ar  
    23     9    18 ar  
    24     9    26 1   
    25    10    25 1   
    26    10    27 2   
    27    11    35 1   
    28    11    36 1   
    29    12    13 ar  
    30    12    37 1   
    31    13    38 1   
    32    14    39 1   
    33    15    20 ar  
    34    15    21 ar  
    35    15    40 1   
    36    16    22 2   
    37    16    26 1   
    38    16    41 1   
    39    17    24 1   
    40    18    22 1   
    41    19    23 ar  
    42    19    24 1   
    43    20    23 ar  
    44    20    26 1   
    45    24    42 1   
    46    25    43 1   
@<TRIPOS>SUBSTRUCTURE
     1 37Q         1 TEMP              0 ****  ****    0 ROOT
