@<TRIPOS>MOLECULE
37R
   41    43     1     0     0
SMALL
abcg2


@<TRIPOS>ATOM
      1 O15          7.0160     0.7510    -1.3620 oh         1 37R      -0.531100
      2 C2           5.8300     0.7730    -0.7130 ca         1 37R       0.135100
      3 C1           4.9760    -0.3280    -0.6900 ca         1 37R      -0.195000
      4 C6           3.7820    -0.2560     0.0010 ca         1 37R       0.162000
      5 O7           2.9930    -1.3740     0.0330 os         1 37R      -0.312000
      6 C8           1.6650    -1.1830     0.3160 ca         1 37R       0.159000
      7 C17          0.7700    -2.1650    -0.0620 ca         1 37R      -0.193000
      8 C12         -0.5830    -2.0280     0.2390 ca         1 37R       0.136100
      9 O16         -1.4870    -2.9720    -0.1130 oh         1 37R      -0.531100
     10 C3           5.4600     1.9390    -0.0550 ca         1 37R      -0.134000
     11 C4           4.2490     1.9980     0.6230 ca         1 37R      -0.103000
     12 C11          3.3940     0.9060     0.6680 ca         1 37R      -0.093000
     13 N10          2.1860     0.9090     1.3620 na         1 37R      -0.183000
     14 C9           1.2380    -0.0420     0.9870 ca         1 37R      -0.091000
     15 C14         -0.1150     0.0800     1.2670 ca         1 37R      -0.103000
     16 C13         -1.0430    -0.8960     0.9130 ca         1 37R      -0.095300
     17 C15         -2.5020    -0.6870     1.2060 c3         1 37R      -0.016100
     18 C16         -3.2590    -0.1050     0.0110 c3         1 37R      -0.075400
     19 C42         -4.7220     0.1790     0.3290 c3         1 37R      -0.064400
     20 C43         -5.4490     0.7790    -0.8630 c3         1 37R      -0.159400
     21 C44         -6.9000     1.1270    -0.5950 c          1 37R       0.603100
     22 O46         -7.4420     0.9330     0.4840 o          1 37R      -0.604100
     23 N45         -7.5450     1.6680    -1.6420 nt         1 37R      -0.616000
     24 H2           7.1410    -0.0960    -1.8030 ho         1 37R       0.466000
     25 H1           5.2380    -1.2490    -1.1990 ha         1 37R       0.130000
     26 H17          1.1350    -3.0420    -0.5850 ha         1 37R       0.130000
     27 HO16        -1.0500    -3.6970    -0.5730 ho         1 37R       0.464000
     28 H3           6.1120     2.8030    -0.0730 ha         1 37R       0.133000
     29 H4           3.9660     2.9130     1.1300 ha         1 37R       0.119000
     30 H5           1.8250     1.8150     1.6170 hn         1 37R       0.317000
     31 H14         -0.4630     0.9680     1.7840 ha         1 37R       0.119000
     32 H152        -2.9750    -1.6230     1.5160 hc         1 37R       0.052700
     33 H151        -2.5950    -0.0010     2.0520 hc         1 37R       0.052700
     34 H161        -2.7650     0.8200    -0.3030 hc         1 37R       0.040200
     35 H162        -3.1920    -0.7940    -0.8360 hc         1 37R       0.040200
     36 H422        -5.2150    -0.7470     0.6380 hc         1 37R       0.055700
     37 H421        -4.7800     0.8610     1.1810 hc         1 37R       0.055700
     38 H432        -4.9330     1.6850    -1.1980 hc         1 37R       0.053700
     39 H431        -5.4130     0.0900    -1.7130 hc         1 37R       0.053700
     40 H451        -7.0880     1.8220    -2.5240 hn         1 37R       0.311500
     41 H452        -8.5120     1.9370    -1.5660 hn         1 37R       0.311500
@<TRIPOS>BOND
     1     1     2 1   
     2     1    24 1   
     3     2     3 ar  
     4     2    10 ar  
     5     3     4 ar  
     6     3    25 1   
     7     4     5 1   
     8     4    12 ar  
     9     5     6 1   
    10     6     7 ar  
    11     6    14 ar  
    12     7     8 ar  
    13     7    26 1   
    14     8     9 1   
    15     8    16 ar  
    16     9    27 1   
    17    10    11 ar  
    18    10    28 1   
    19    11    12 ar  
    20    11    29 1   
    21    12    13 1   
    22    13    14 1   
    23    13    30 1   
    24    14    15 ar  
    25    15    16 ar  
    26    15    31 1   
    27    16    17 1   
    28    17    18 1   
    29    17    32 1   
    30    17    33 1   
    31    18    19 1   
    32    18    34 1   
    33    18    35 1   
    34    19    20 1   
    35    19    36 1   
    36    19    37 1   
    37    20    21 1   
    38    20    38 1   
    39    20    39 1   
    40    21    22 2   
    41    21    23 1   
    42    23    40 1   
    43    23    41 1   
@<TRIPOS>SUBSTRUCTURE
     1 37R         1 TEMP              0 ****  ****    0 ROOT
