@<TRIPOS>MOLECULE
37R
   41    43     1     0     0
SMALL
No Charge or Current Charge


@<TRIPOS>ATOM
      1 O15          7.4540     0.4530    -0.7510 oh         1 37R      -0.531100
      2 C2           6.1550     0.6170    -0.3730 ca         1 37R       0.135100
      3 C1           5.2210    -0.4080    -0.5910 ca         1 37R      -0.195000
      4 C6           3.8870    -0.2270    -0.1980 ca         1 37R       0.162000
      5 O7           2.9780    -1.2350    -0.4150 os         1 37R      -0.312000
      6 C8           1.6650    -1.0800    -0.0380 ca         1 37R       0.159000
      7 C17          0.7550    -2.1190    -0.2710 ca         1 37R      -0.193000
      8 C12         -0.5890    -1.9740     0.1090 ca         1 37R       0.136100
      9 O16         -1.4600    -2.9980    -0.1320 oh         1 37R      -0.531100
     10 C3           5.7540     1.8160     0.2370 ca         1 37R      -0.134000
     11 C4           4.4160     2.0000     0.6320 ca         1 37R      -0.103000
     12 C11          3.4740     0.9770     0.4160 ca         1 37R      -0.093000
     13 N10          2.1460     1.1590     0.8090 na         1 37R      -0.183000
     14 C9           1.2430     0.1180     0.5770 ca         1 37R      -0.091000
     15 C14         -0.1040     0.2610     0.9560 ca         1 37R      -0.103000
     16 C13         -1.0280    -0.7800     0.7290 ca         1 37R      -0.095300
     17 C15         -2.4840    -0.5840     1.1500 c3         1 37R      -0.016100
     18 C16         -3.3510    -0.0220     0.0030 c3         1 37R      -0.075400
     19 C42         -4.8260     0.1950     0.4050 c3         1 37R      -0.064400
     20 C43         -5.6880     0.7590    -0.7510 c3         1 37R      -0.159400
     21 C44         -7.1680     0.9990    -0.4220 c          1 37R       0.603100
     22 O46         -7.6730     0.7760     0.6650 o          1 37R      -0.604100
     23 N45         -7.9170     1.4890    -1.4320 nt         1 37R      -0.616000
     24 H2           7.5520    -0.4360    -1.1550 ho         1 37R       0.466000
     25 H1           5.5180    -1.3410    -1.0620 ha         1 37R       0.130000
     26 H17          1.1020    -3.0320    -0.7470 ha         1 37R       0.130000
     27 HO16        -0.9710    -3.7300    -0.5640 ho         1 37R       0.464000
     28 H3           6.4820     2.6070     0.4040 ha         1 37R       0.133000
     29 H4           4.1180     2.9340     1.1040 ha         1 37R       0.119000
     30 H5           1.8460     2.0210     1.2500 hn         1 37R       0.317000
     31 H14         -0.4370     1.1840     1.4270 ha         1 37R       0.119000
     32 H152        -2.9150    -1.5300     1.5010 hc         1 37R       0.052700
     33 H151        -2.5380     0.1010     2.0050 hc         1 37R       0.052700
     34 H161        -2.9240     0.9310    -0.3330 hc         1 37R       0.040200
     35 H162        -3.3070    -0.7100    -0.8510 hc         1 37R       0.040200
     36 H422        -5.2530    -0.7590     0.7400 hc         1 37R       0.055700
     37 H421        -4.8710     0.8840     1.2580 hc         1 37R       0.055700
     38 H432        -5.2780     1.6960    -1.1470 hc         1 37R       0.053700
     39 H431        -5.6430     0.1220    -1.6430 hc         1 37R       0.053700
     40 H451        -7.4950     1.6720    -2.3310 hn         1 37R       0.311500
     41 H452        -8.8980     1.6680    -1.2780 hn         1 37R       0.311500
@<TRIPOS>BOND
     1     1     2 1   
     2     1    24 1   
     3     2     3 ar  
     4     2    10 ar  
     5     3     4 ar  
     6     3    25 1   
     7     4     5 1   
     8     4    12 ar  
     9     5     6 1   
    10     6     7 ar  
    11     6    14 ar  
    12     7     8 ar  
    13     7    26 1   
    14     8     9 1   
    15     8    16 ar  
    16     9    27 1   
    17    10    11 ar  
    18    10    28 1   
    19    11    12 ar  
    20    11    29 1   
    21    12    13 1   
    22    13    14 1   
    23    13    30 1   
    24    14    15 ar  
    25    15    16 ar  
    26    15    31 1   
    27    16    17 1   
    28    17    18 1   
    29    17    32 1   
    30    17    33 1   
    31    18    19 1   
    32    18    34 1   
    33    18    35 1   
    34    19    20 1   
    35    19    36 1   
    36    19    37 1   
    37    20    21 1   
    38    20    38 1   
    39    20    39 1   
    40    21    22 2   
    41    21    23 1   
    42    23    40 1   
    43    23    41 1   
@<TRIPOS>SUBSTRUCTURE
     1 37R         1 TEMP              0 ****  ****    0 ROOT
