@<TRIPOS>MOLECULE
37T
   21    22     1     0     0
SMALL
abcg2


@<TRIPOS>ATOM
      1 O6          -5.9570    -0.0150    -0.7630 o          1 37T      -0.537000
      2 C6          -4.7500    -0.1720    -0.7230 c          1 37T       0.638600
      3 N1          -4.1610    -1.0930     0.1350 ns         1 37T      -0.471500
      4 C5          -3.7510     0.5020    -1.4830 cc         1 37T      -0.356600
      5 N7          -3.8220     1.4830    -2.4410 na         1 37T      -0.109500
      6 C13         -5.0170     2.1130    -2.9610 c3         1 37T       0.060900
      7 C8          -2.5620     1.7340    -2.8080 cc         1 37T       0.447400
      8 N9          -1.6710     0.9960    -2.1650 nd         1 37T      -0.705000
      9 C4          -2.4090     0.2320    -1.3450 cd         1 37T       0.438900
     10 N3          -1.9370    -0.7070    -0.4680 n          1 37T      -0.360300
     11 C12         -0.5170    -0.9870    -0.3350 c3         1 37T       0.101300
     12 C2          -2.8250    -1.4010     0.3100 c          1 37T       0.622000
     13 O2          -2.4690    -2.2410     1.1130 o          1 37T      -0.553000
     14 HN1         -4.7930    -1.6190     0.7250 hn         1 37T       0.345500
     15 H131        -5.6500     1.3800    -3.4530 h1         1 37T       0.065367
     16 H132        -5.5740     2.5890    -2.1590 h1         1 37T       0.065367
     17 H133        -4.7220     2.8680    -3.6830 h1         1 37T       0.065367
     18 H8          -2.3230     2.4730    -3.5580 h5         1 37T       0.063100
     19 H121        -0.1670    -0.7440     0.6660 h1         1 37T       0.059033
     20 H122         0.0210    -0.3780    -1.0530 h1         1 37T       0.059033
     21 H123        -0.3130    -2.0350    -0.5410 h1         1 37T       0.059033
@<TRIPOS>BOND
     1     1     2 2   
     2     2     3 1   
     3     2     4 1   
     4     3    12 1   
     5     3    14 1   
     6     4     5 1   
     7     4     9 2   
     8     5     6 1   
     9     5     7 1   
    10     6    15 1   
    11     6    16 1   
    12     6    17 1   
    13     7     8 2   
    14     7    18 1   
    15     8     9 1   
    16     9    10 1   
    17    10    11 1   
    18    10    12 1   
    19    11    19 1   
    20    11    20 1   
    21    11    21 1   
    22    12    13 2   
@<TRIPOS>SUBSTRUCTURE
     1 37T         1 TEMP              0 ****  ****    0 ROOT
