@<TRIPOS>MOLECULE
37T
   21    22     1     0     0
SMALL
No Charge or Current Charge


@<TRIPOS>ATOM
      1 O6          -5.9240    -0.0380    -0.7830 o          1 37T      -0.537000
      2 C6          -4.7200    -0.2160    -0.7130 c          1 37T       0.638600
      3 N1          -4.1750    -1.1280     0.1290 ns         1 37T      -0.471500
      4 C5          -3.7220     0.5060    -1.4970 cc         1 37T      -0.356600
      5 N7          -3.8150     1.5020    -2.4490 na         1 37T      -0.109500
      6 C13         -5.0460     2.1320    -2.9520 c3         1 37T       0.060900
      7 C8          -2.5260     1.7990    -2.8430 cc         1 37T       0.447400
      8 N9          -1.6490     1.0450    -2.1910 nd         1 37T      -0.705000
      9 C4          -2.3940     0.2430    -1.3580 cd         1 37T       0.438900
     10 N3          -1.9410    -0.7140    -0.4760 n          1 37T      -0.360300
     11 C12         -0.4950    -0.9980    -0.3220 c3         1 37T       0.101300
     12 C2          -2.8600    -1.4280     0.3090 c          1 37T       0.622000
     13 O2          -2.5230    -2.2770     1.1180 o          1 37T      -0.553000
     14 HN1         -4.8260    -1.6480     0.6950 hn         1 37T       0.345500
     15 H131        -5.6910     1.3680    -3.4040 h1         1 37T       0.065367
     16 H132        -5.5800     2.6090    -2.1210 h1         1 37T       0.065367
     17 H133        -4.8010     2.8900    -3.7060 h1         1 37T       0.065367
     18 H8          -2.3020     2.5540    -3.5880 h5         1 37T       0.063100
     19 H121        -0.1330    -0.5610     0.6170 h1         1 37T       0.059033
     20 H122         0.0800    -0.5770    -1.1550 h1         1 37T       0.059033
     21 H123        -0.3250    -2.0820    -0.3020 h1         1 37T       0.059033
@<TRIPOS>BOND
     1     1     2 2   
     2     2     3 1   
     3     2     4 1   
     4     3    12 1   
     5     3    14 1   
     6     4     5 1   
     7     4     9 2   
     8     5     6 1   
     9     5     7 1   
    10     6    15 1   
    11     6    16 1   
    12     6    17 1   
    13     7     8 2   
    14     7    18 1   
    15     8     9 1   
    16     9    10 1   
    17    10    11 1   
    18    10    12 1   
    19    11    19 1   
    20    11    20 1   
    21    11    21 1   
    22    12    13 2   
@<TRIPOS>SUBSTRUCTURE
     1 37T         1 TEMP              0 ****  ****    0 ROOT
