@<TRIPOS>MOLECULE
37U
   51    53     1     0     0
SMALL
No Charge or Current Charge


@<TRIPOS>ATOM
      1 N25         -3.4810    -1.9740     1.0720 n8         1 37U      -0.982200
      2 C7          -3.0910    -0.6940     0.3770 c3         1 37U       0.102500
      3 C6          -1.5430    -0.5080     0.1450 c          1 37U       0.567100
      4 O27         -0.8170    -1.4790    -0.0500 o          1 37U      -0.616100
      5 C8          -3.8590    -0.5460    -0.9660 c3         1 37U      -0.023100
      6 C9          -5.3660    -0.3680    -0.7930 ca         1 37U      -0.071300
      7 C10         -5.8840     0.8460    -0.2980 ca         1 37U      -0.097000
      8 C14         -6.2550    -1.4050    -1.1420 ca         1 37U      -0.097000
      9 C11         -7.2710     1.0190    -0.1490 ca         1 37U      -0.111500
     10 C13         -7.6420    -1.2320    -0.9920 ca         1 37U      -0.111500
     11 C12         -8.1510    -0.0200    -0.4950 ca         1 37U      -0.109000
     12 N15         -0.9910     0.7960     0.1810 n          1 37U      -0.395800
     13 C5           0.4760     1.0510     0.0610 c5         1 37U       0.026700
     14 C4           1.3800     0.3110     1.1020 c          1 37U       0.606100
     15 O26          1.0510    -0.1470     2.1900 o          1 37U      -0.592100
     16 C17          0.5510     2.5820     0.3570 c5         1 37U      -0.087400
     17 C16         -0.7920     3.0940    -0.2150 c5         1 37U      -0.094400
     18 C15         -1.7850     2.0360     0.3220 c5         1 37U       0.107000
     19 C1           5.9100     0.8850     0.7620 ca         1 37U      -0.115000
     20 C2           5.0780    -0.2340     0.5590 ca         1 37U      -0.081300
     21 C3           3.7790    -0.3760     1.3370 c3         1 37U       0.142300
     22 N9           2.6680     0.2430     0.6200 ns         1 37U      -0.498900
     23 C18          5.4550    -1.2150    -0.3800 ca         1 37U      -0.149000
     24 C19          6.6520    -1.0760    -1.1010 ca         1 37U       0.173000
     25 F7           7.0080    -2.0200    -1.9990 f          1 37U      -0.179000
     26 C20          7.4810     0.0380    -0.8950 ca         1 37U      -0.150000
     27 C21          7.1090     1.0210     0.0380 ca         1 37U      -0.086000
     28 HN25        -3.0730    -2.7610     0.5520 hn         1 37U       0.410500
     29 HN2A        -2.9950    -2.0270     1.9760 hn         1 37U       0.410500
     30 H7          -3.4080     0.1270     1.0330 h1         1 37U       0.073700
     31 H8          -3.4620     0.3140    -1.5180 hc         1 37U       0.053200
     32 H8A         -3.6440    -1.4170    -1.5980 hc         1 37U       0.053200
     33 H10         -5.2120     1.6580    -0.0310 ha         1 37U       0.108000
     34 H14         -5.8710    -2.3470    -1.5260 ha         1 37U       0.108000
     35 H11         -7.6630     1.9580     0.2350 ha         1 37U       0.110500
     36 H13         -8.3220    -2.0370    -1.2610 ha         1 37U       0.110500
     37 H12         -9.2240     0.1130    -0.3790 ha         1 37U       0.110000
     38 H5           0.8180     0.8170    -0.9550 h1         1 37U       0.068700
     39 H17          0.6120     2.7830     1.4340 hc         1 37U       0.061700
     40 H17A         1.4200     3.0580    -0.1110 hc         1 37U       0.061700
     41 H16         -0.7790     3.1020    -1.3110 hc         1 37U       0.057700
     42 H16A        -1.0390     4.1080     0.1190 hc         1 37U       0.057700
     43 H15         -2.7130     2.0270    -0.2630 h1         1 37U       0.054700
     44 H15A        -2.0370     2.2170     1.3760 h1         1 37U       0.054700
     45 H3           3.5550    -1.4390     1.4980 h1         1 37U       0.071700
     46 H3A          3.8810     0.0990     2.3220 h1         1 37U       0.071700
     47 HN9          2.8510     0.6540    -0.2880 hn         1 37U       0.315500
     48 H18          4.8230    -2.0820    -0.5540 ha         1 37U       0.131000
     49 H20          8.4050     0.1370    -1.4580 ha         1 37U       0.133000
     50 H21          7.7470     1.8880     0.2000 ha         1 37U       0.117000
     51 H1           5.6280     1.6520     1.4800 ha         1 37U       0.120000
@<TRIPOS>BOND
     1     1     2 1   
     2     1    28 1   
     3     1    29 1   
     4     2     3 1   
     5     2     5 1   
     6     2    30 1   
     7     3     4 2   
     8     3    12 1   
     9     5     6 1   
    10     5    31 1   
    11     5    32 1   
    12     6     7 ar  
    13     6     8 ar  
    14     7     9 ar  
    15     7    33 1   
    16     8    10 ar  
    17     8    34 1   
    18     9    11 ar  
    19     9    35 1   
    20    10    11 ar  
    21    10    36 1   
    22    11    37 1   
    23    12    13 1   
    24    12    18 1   
    25    13    14 1   
    26    13    16 1   
    27    13    38 1   
    28    14    15 2   
    29    14    22 1   
    30    16    17 1   
    31    16    39 1   
    32    16    40 1   
    33    17    18 1   
    34    17    41 1   
    35    17    42 1   
    36    18    43 1   
    37    18    44 1   
    38    19    20 ar  
    39    19    27 ar  
    40    19    51 1   
    41    20    21 1   
    42    20    23 ar  
    43    21    22 1   
    44    21    45 1   
    45    21    46 1   
    46    22    47 1   
    47    23    24 ar  
    48    23    48 1   
    49    24    25 1   
    50    24    26 ar  
    51    26    27 ar  
    52    26    49 1   
    53    27    50 1   
@<TRIPOS>SUBSTRUCTURE
     1 37U         1 TEMP              0 ****  ****    0 ROOT
