@<TRIPOS>MOLECULE
37U
   51    53     1     0     0
SMALL
abcg2


@<TRIPOS>ATOM
      1 N25         -3.3260    -1.7660     1.0690 n8         1 37U      -0.982200
      2 C7          -2.9840    -0.5490     0.3730 c3         1 37U       0.102500
      3 C6          -1.5300    -0.5180    -0.1040 c          1 37U       0.567100
      4 O27         -0.9590    -1.5500    -0.4400 o          1 37U      -0.616100
      5 C8          -3.8900    -0.3670    -0.8600 c3         1 37U      -0.023100
      6 C9          -5.3300    -0.1750    -0.4820 ca         1 37U      -0.071300
      7 C10         -5.8230     1.1030    -0.2270 ca         1 37U      -0.097000
      8 C14         -6.1940    -1.2580    -0.3460 ca         1 37U      -0.097000
      9 C11         -7.1440     1.2970     0.1550 ca         1 37U      -0.111500
     10 C13         -7.5170    -1.0710     0.0320 ca         1 37U      -0.111500
     11 C12         -7.9960     0.2080     0.2860 ca         1 37U      -0.109000
     12 N15         -0.9160     0.6720    -0.1780 n          1 37U      -0.395800
     13 C5           0.4630     0.7470    -0.6220 c5         1 37U       0.026700
     14 C4           1.3800    -0.0760     0.2730 c          1 37U       0.606100
     15 O26          1.1890    -0.1660     1.4740 o          1 37U      -0.592100
     16 C17          0.8060     2.2410    -0.5050 c5         1 37U      -0.087400
     17 C16         -0.5510     2.9290    -0.5950 c5         1 37U      -0.094400
     18 C15         -1.4610     1.9790     0.1680 c5         1 37U       0.107000
     19 C1           4.8070     0.8750     0.5470 ca         1 37U      -0.115000
     20 C2           4.8050    -0.4970     0.3100 ca         1 37U      -0.081300
     21 C3           3.5200    -1.2900     0.2930 c3         1 37U       0.142300
     22 N9           2.4380    -0.6030    -0.3640 ns         1 37U      -0.498900
     23 C18          6.0150    -1.1530     0.1140 ca         1 37U      -0.149000
     24 C19          7.1910    -0.4290     0.1620 ca         1 37U       0.173000
     25 F7           8.3520    -1.0770    -0.0340 f          1 37U      -0.179000
     26 C20          7.2150     0.9310     0.3930 ca         1 37U      -0.150000
     27 C21          6.0010     1.5790     0.5880 ca         1 37U      -0.086000
     28 HN25        -3.0510    -2.5660     0.5110 hn         1 37U       0.410500
     29 HN2A        -2.7960    -1.8300     1.9290 hn         1 37U       0.410500
     30 H7          -3.1650     0.2810     1.0610 h1         1 37U       0.073700
     31 H8          -3.5460     0.4900    -1.4430 hc         1 37U       0.053200
     32 H8A         -3.7760    -1.2440    -1.5040 hc         1 37U       0.053200
     33 H10         -5.1660     1.9600    -0.3320 ha         1 37U       0.108000
     34 H14         -5.8300    -2.2590    -0.5440 ha         1 37U       0.108000
     35 H11         -7.5080     2.2980     0.3470 ha         1 37U       0.110500
     36 H13         -8.1750    -1.9250     0.1290 ha         1 37U       0.110500
     37 H12         -9.0270     0.3560     0.5800 ha         1 37U       0.110000
     38 H5           0.5440     0.4140    -1.6620 h1         1 37U       0.068700
     39 H17          1.2560     2.4550     0.4670 hc         1 37U       0.061700
     40 H17A         1.5080     2.5560    -1.2750 hc         1 37U       0.061700
     41 H16         -0.8770     3.0060    -1.6340 hc         1 37U       0.057700
     42 H16A        -0.5460     3.9310    -0.1680 hc         1 37U       0.057700
     43 H15         -2.5020     2.0800    -0.1330 h1         1 37U       0.054700
     44 H15A        -1.4010     2.1540     1.2460 h1         1 37U       0.054700
     45 H3           3.6890    -2.2510    -0.1980 h1         1 37U       0.071700
     46 H3A          3.2090    -1.5110     1.3140 h1         1 37U       0.071700
     47 HN9          2.5060    -0.4860    -1.3630 hn         1 37U       0.315500
     48 H18          6.0430    -2.2200    -0.0780 ha         1 37U       0.131000
     49 H20          8.1520     1.4730     0.4210 ha         1 37U       0.133000
     50 H21          5.9920     2.6450     0.7710 ha         1 37U       0.117000
     51 H1           3.8750     1.4040     0.7010 ha         1 37U       0.120000
@<TRIPOS>BOND
     1     1     2 1   
     2     1    28 1   
     3     1    29 1   
     4     2     3 1   
     5     2     5 1   
     6     2    30 1   
     7     3     4 2   
     8     3    12 1   
     9     5     6 1   
    10     5    31 1   
    11     5    32 1   
    12     6     7 ar  
    13     6     8 ar  
    14     7     9 ar  
    15     7    33 1   
    16     8    10 ar  
    17     8    34 1   
    18     9    11 ar  
    19     9    35 1   
    20    10    11 ar  
    21    10    36 1   
    22    11    37 1   
    23    12    13 1   
    24    12    18 1   
    25    13    14 1   
    26    13    16 1   
    27    13    38 1   
    28    14    15 2   
    29    14    22 1   
    30    16    17 1   
    31    16    39 1   
    32    16    40 1   
    33    17    18 1   
    34    17    41 1   
    35    17    42 1   
    36    18    43 1   
    37    18    44 1   
    38    19    20 ar  
    39    19    27 ar  
    40    19    51 1   
    41    20    21 1   
    42    20    23 ar  
    43    21    22 1   
    44    21    45 1   
    45    21    46 1   
    46    22    47 1   
    47    23    24 ar  
    48    23    48 1   
    49    24    25 1   
    50    24    26 ar  
    51    26    27 ar  
    52    26    49 1   
    53    27    50 1   
@<TRIPOS>SUBSTRUCTURE
     1 37U         1 TEMP              0 ****  ****    0 ROOT
