@<TRIPOS>MOLECULE
37V
   37    39     1     0     0
SMALL
bcc


@<TRIPOS>ATOM
      1 N1           0.3130    -1.3670    -2.0330 ns         1 37V      -0.584900
      2 C3           1.6580    -1.0810    -2.4570 c3         1 37V       0.089700
      3 C4           2.4640    -0.4090    -1.3830 cc         1 37V       0.281200
      4 S5           1.6750     0.0670     0.0890 ss         1 37V       0.140900
      5 C6           3.1830     0.7180     0.6270 ca         1 37V      -0.079100
      6 C7           3.4800     1.3600     1.8260 ca         1 37V      -0.056000
      7 C8           4.7790     1.7900     2.0270 ca         1 37V      -0.151000
      8 C9           5.7650     1.5870     1.0530 ca         1 37V      -0.145000
      9 C10          5.4680     0.9550    -0.1390 ca         1 37V      -0.099000
     10 C12          4.1630     0.5130    -0.3610 ca         1 37V       0.081400
     11 N13          3.7150    -0.1250    -1.4950 nd         1 37V      -0.569100
     12 C19         -0.6690    -0.4450    -2.0180 c          1 37V       0.701700
     13 O20         -0.5160     0.7040    -2.3920 o          1 37V      -0.567100
     14 C21         -1.9820    -0.9660    -1.5210 ca         1 37V      -0.228600
     15 C22         -2.8100    -1.6730    -2.3780 ca         1 37V      -0.046000
     16 C24         -4.0530    -2.1380    -1.9680 ca         1 37V      -0.249000
     17 C26         -4.4280    -1.8740    -0.6700 ca         1 37V       0.182900
     18 F27         -5.6220    -2.3070    -0.2380 f          1 37V      -0.155900
     19 C28         -3.6320    -1.1830     0.2250 ca         1 37V      -0.282000
     20 C30         -2.3900    -0.7150    -0.2030 ca         1 37V       0.229100
     21 O31         -1.5360    -0.0410     0.5760 os         1 37V      -0.264900
     22 C32         -1.8460     0.0850     1.9570 c3         1 37V      -0.024600
     23 C33         -0.7490     0.8260     2.7410 c          1 37V       0.943600
     24 O34         -0.9430     0.8090     3.9710 o          1 37V      -0.812800
     25 O36          0.1750     1.3730     2.1220 o          1 37V      -0.812800
     26 H1           0.1130    -2.2910    -1.6840 hn         1 37V       0.318500
     27 H2           2.1390    -2.0180    -2.7370 h1         1 37V       0.064200
     28 H3           1.6480    -0.4470    -3.3460 h1         1 37V       0.064200
     29 H4           2.7090     1.5260     2.5660 ha         1 37V       0.184000
     30 H5           5.0370     2.2930     2.9490 ha         1 37V       0.121000
     31 H6           6.7740     1.9340     1.2380 ha         1 37V       0.113000
     32 H7           6.2270     0.8010    -0.8950 ha         1 37V       0.128000
     33 H8          -2.4830    -1.8680    -3.3920 ha         1 37V       0.127000
     34 H9          -4.6980    -2.6890    -2.6390 ha         1 37V       0.139000
     35 H10         -3.9950    -1.0210     1.2310 ha         1 37V       0.163000
     36 H11         -2.7860     0.6370     2.0830 h1         1 37V       0.026200
     37 H12         -1.9920    -0.9070     2.3980 h1         1 37V       0.026200
@<TRIPOS>BOND
     1     1     2 1   
     2     1    12 1   
     3     1    26 1   
     4     2     3 1   
     5     2    27 1   
     6     2    28 1   
     7     3     4 1   
     8     3    11 2   
     9     4     5 1   
    10     5     6 ar  
    11     5    10 ar  
    12     6     7 ar  
    13     6    29 1   
    14     7     8 ar  
    15     7    30 1   
    16     8     9 ar  
    17     8    31 1   
    18     9    10 ar  
    19     9    32 1   
    20    10    11 1   
    21    12    13 2   
    22    12    14 1   
    23    14    15 ar  
    24    14    20 ar  
    25    15    16 ar  
    26    15    33 1   
    27    16    17 ar  
    28    16    34 1   
    29    17    18 1   
    30    17    19 ar  
    31    19    20 ar  
    32    19    35 1   
    33    20    21 1   
    34    21    22 1   
    35    22    23 1   
    36    22    36 1   
    37    22    37 1   
    38    23    24 1   
    39    23    25 1   
@<TRIPOS>SUBSTRUCTURE
     1 37V         1 TEMP              0 ****  ****    0 ROOT
