@<TRIPOS>MOLECULE
37V
   37    39     1     0     0
SMALL
No Charge or Current Charge


@<TRIPOS>ATOM
      1 N1           0.3460    -1.1410    -2.1380 ns         1 37V      -0.517900
      2 C3           1.6500    -0.6520    -2.6220 c3         1 37V       0.089700
      3 C4           2.6480    -0.2920    -1.5410 cc         1 37V       0.281200
      4 S5           2.6480    -1.1970    -0.0050 ss         1 37V       0.267800
      5 C6           4.0020    -0.1670     0.4410 ca         1 37V      -0.206000
      6 C7           4.7000    -0.2130     1.6590 ca         1 37V      -0.038000
      7 C8           5.7670     0.6850     1.8560 ca         1 37V      -0.133000
      8 C9           6.1160     1.6030     0.8440 ca         1 37V      -0.127000
      9 C10          5.3970     1.6250    -0.3690 ca         1 37V      -0.081000
     10 C12          4.3330     0.7270    -0.5580 ca         1 37V       0.081400
     11 N13          3.5690     0.6730    -1.7170 nd         1 37V      -0.569100
     12 C19         -0.5850    -0.3680    -1.4760 c          1 37V       0.634700
     13 O20         -0.3690     0.8130    -1.2530 o          1 37V      -0.567100
     14 C21         -1.8770    -1.0670    -1.1220 ca         1 37V      -0.228600
     15 C22         -2.3130    -2.1740    -1.8930 ca         1 37V      -0.028000
     16 C24         -3.5160    -2.8260    -1.5890 ca         1 37V      -0.231000
     17 C26         -4.2960    -2.3860    -0.5180 ca         1 37V       0.218000
     18 F27         -5.4550    -3.0170    -0.2280 f          1 37V      -0.191000
     19 C28         -3.8860    -1.2990     0.2580 ca         1 37V      -0.264000
     20 C30         -2.6760    -0.6310    -0.0340 ca         1 37V       0.229100
     21 O31         -2.2410     0.4190     0.7550 os         1 37V      -0.288100
     22 C32         -2.9970     0.9110     1.8900 c3         1 37V      -0.001400
     23 C33         -2.3030     2.0870     2.6360 c          1 37V       0.733000
     24 O34         -2.8960     2.5780     3.5880 o          1 37V      -0.707500
     25 O36         -1.2050     2.4810     2.2610 o          1 37V      -0.707500
     26 H1           0.1050    -2.1130    -2.2890 hn         1 37V       0.318500
     27 H2           2.0950    -1.4280    -3.2580 h1         1 37V       0.064200
     28 H3           1.4760     0.2290    -3.2530 h1         1 37V       0.064200
     29 H4           4.4250    -0.9250     2.4360 ha         1 37V       0.166000
     30 H5           6.3230     0.6700     2.7910 ha         1 37V       0.103000
     31 H6           6.9400     2.2950     0.9980 ha         1 37V       0.095000
     32 H7           5.6630     2.3320    -1.1510 ha         1 37V       0.110000
     33 H8          -1.7400    -2.5250    -2.7490 ha         1 37V       0.109000
     34 H9          -3.8460    -3.6700    -2.1880 ha         1 37V       0.121000
     35 H10         -4.5180    -0.9950     1.0840 ha         1 37V       0.145000
     36 H11         -3.9830     1.2660     1.5620 h1         1 37V       0.026200
     37 H12         -3.1480     0.1060     2.6210 h1         1 37V       0.026200
@<TRIPOS>BOND
     1     1     2 1   
     2     1    12 1   
     3     1    26 1   
     4     2     3 1   
     5     2    27 1   
     6     2    28 1   
     7     3     4 1   
     8     3    11 2   
     9     4     5 1   
    10     5     6 ar  
    11     5    10 ar  
    12     6     7 ar  
    13     6    29 1   
    14     7     8 ar  
    15     7    30 1   
    16     8     9 ar  
    17     8    31 1   
    18     9    10 ar  
    19     9    32 1   
    20    10    11 1   
    21    12    13 2   
    22    12    14 1   
    23    14    15 ar  
    24    14    20 ar  
    25    15    16 ar  
    26    15    33 1   
    27    16    17 ar  
    28    16    34 1   
    29    17    18 1   
    30    17    19 ar  
    31    19    20 ar  
    32    19    35 1   
    33    20    21 1   
    34    21    22 1   
    35    22    23 1   
    36    22    36 1   
    37    22    37 1   
    38    23    24 1   
    39    23    25 1   
@<TRIPOS>SUBSTRUCTURE
     1 37V         1 TEMP              0 ****  ****    0 ROOT
