@<TRIPOS>MOLECULE
37W
   47    48     1     0     0
SMALL
No Charge or Current Charge


@<TRIPOS>ATOM
      1 C10          0.6360   -13.1430   -13.9930 cc         1 37W       0.031600
      2 C02          2.7640    -6.9260   -13.9220 ca         1 37W      -0.082300
      3 C03          1.6070    -7.1620   -14.6880 ca         1 37W      -0.116000
      4 C04          1.1300    -8.4680   -14.8800 ca         1 37W      -0.104000
      5 C05          1.7920    -9.5650   -14.2970 ca         1 37W      -0.025000
      6 C06          1.3150   -10.9500   -14.5100 cd         1 37W      -0.016000
      7 C07          0.9680   -11.4050   -15.7690 cc         1 37W      -0.249300
      8 C08          1.0980   -10.7030   -17.1000 c3         1 37W      -0.014800
      9 S09          0.4870   -13.0900   -15.7460 ss         1 37W       0.283000
     10 N11          0.3400   -14.2390   -13.1880 ns         1 37W      -0.385100
     11 C12         -0.0890   -15.5010   -13.5420 c          1 37W       0.601100
     12 O13         -0.2920   -15.8450   -14.6980 o          1 37W      -0.594100
     13 C14         -0.3350   -16.4460   -12.3600 c3         1 37W      -0.152400
     14 C15          0.7660   -17.5290   -12.2590 c3         1 37W      -0.047400
     15 C16          0.5550   -18.5010   -11.0720 c3         1 37W      -0.204400
     16 C17          1.6790   -19.5510   -11.0390 c          1 37W       0.711000
     17 O18          1.5270   -20.5790   -11.6800 o          1 37W      -0.739000
     18 O19          2.6960   -19.2870   -10.4150 o          1 37W      -0.739000
     19 C20          1.0380   -11.9230   -13.4680 cd         1 37W      -0.278600
     20 C21          1.0930   -11.7180   -11.9770 c          1 37W       0.645700
     21 N22          1.2290   -10.4600   -11.5370 nt         1 37W      -0.598000
     22 O23          0.9710   -12.6070   -11.1480 o          1 37W      -0.662100
     23 C24          2.9610    -9.3280   -13.5460 ca         1 37W      -0.096000
     24 C25          3.4500    -8.0210   -13.3470 ca         1 37W      -0.082300
     25 C26          4.7160    -7.8150   -12.5200 c3         1 37W      -0.045800
     26 H1           3.2790    -5.2210   -12.6700 hc         1 37W       0.039700
     27 H2           4.2680    -5.3680   -14.1350 hc         1 37W       0.039700
     28 H3           2.6100    -4.7690   -14.2410 hc         1 37W       0.039700
     29 H4           1.0700    -6.3300   -15.1380 ha         1 37W       0.108000
     30 H5           0.2240    -8.6230   -15.4600 ha         1 37W       0.122000
     31 H6           1.2420   -11.4240   -17.9140 hc         1 37W       0.042033
     32 H7           0.1970   -10.1220   -17.3290 hc         1 37W       0.042033
     33 H8           1.9580   -10.0230   -17.1120 hc         1 37W       0.042033
     34 H9           0.4590   -14.1000   -12.1870 hn         1 37W       0.378500
     35 H10         -0.3510   -15.8800   -11.4200 hc         1 37W       0.057700
     36 H11         -1.3000   -16.9460   -12.5070 hc         1 37W       0.057700
     37 H12          0.7950   -18.1030   -13.1950 hc         1 37W       0.054200
     38 H13          1.7440   -17.0410   -12.1570 hc         1 37W       0.054200
     39 H14          0.5820   -17.8810   -10.1670 hc         1 37W       0.019700
     40 H15         -0.4150   -18.9830   -11.2480 hc         1 37W       0.019700
     41 H17          1.2490   -10.2840   -10.5450 hn         1 37W       0.318000
     42 H18          1.3080    -9.7070   -12.2020 hn         1 37W       0.318000
     43 H19          3.5010   -10.1730   -13.1260 ha         1 37W       0.126000
     44 H20          4.5190    -7.1800   -11.6490 hc         1 37W       0.041367
     45 H21          5.1180    -8.7640   -12.1470 hc         1 37W       0.041367
     46 H22          5.5030    -7.3390   -13.1160 hc         1 37W       0.041367
     47 C01          3.2560    -5.4940   -13.7320 c3         1 37W      -0.043800
@<TRIPOS>BOND
     1     1     9 1   
     2     1    10 1   
     3     1    19 2   
     4     2     3 ar  
     5     2    24 ar  
     6     2    47 1   
     7     3     4 ar  
     8     3    29 1   
     9     4     5 ar  
    10     4    30 1   
    11     5     6 1   
    12     5    23 ar  
    13     6     7 2   
    14     6    19 1   
    15     7     8 1   
    16     7     9 1   
    17     8    31 1   
    18     8    32 1   
    19     8    33 1   
    20    10    11 1   
    21    10    34 1   
    22    11    12 2   
    23    11    13 1   
    24    13    14 1   
    25    13    35 1   
    26    13    36 1   
    27    14    15 1   
    28    14    37 1   
    29    14    38 1   
    30    15    16 1   
    31    15    39 1   
    32    15    40 1   
    33    16    17 1   
    34    16    18 1   
    35    19    20 1   
    36    20    21 1   
    37    20    22 2   
    38    21    41 1   
    39    21    42 1   
    40    23    24 ar  
    41    23    43 1   
    42    24    25 1   
    43    25    44 1   
    44    25    45 1   
    45    25    46 1   
    46    26    47 1   
    47    27    47 1   
    48    28    47 1   
@<TRIPOS>SUBSTRUCTURE
     1 37W         1 TEMP              0 ****  ****    0 ROOT
