@<TRIPOS>MOLECULE
37W
   47    48     1     0     0
SMALL
abcg2


@<TRIPOS>ATOM
      1 C10          0.7070   -13.1160   -13.7620 cc         1 37W       0.031600
      2 C02          2.6440    -6.8640   -13.9230 ca         1 37W      -0.082300
      3 C03          1.3570    -7.1650   -14.3640 ca         1 37W      -0.116000
      4 C04          0.9250    -8.4790   -14.5050 ca         1 37W      -0.104000
      5 C05          1.7860    -9.5330   -14.2060 ca         1 37W      -0.025000
      6 C06          1.3500   -10.9440   -14.3640 cd         1 37W      -0.016000
      7 C07          1.2440   -11.5240   -15.5950 cc         1 37W      -0.249300
      8 C08          1.5120   -10.9250   -16.9380 c3         1 37W      -0.014800
      9 S09          0.7570   -13.1930   -15.4880 ss         1 37W       0.283000
     10 N11          0.3650   -14.1940   -12.9760 ns         1 37W      -0.385100
     11 C12         -0.0010   -15.4300   -13.4160 c          1 37W       0.601100
     12 O13         -0.0640   -15.6970   -14.6140 o          1 37W      -0.594100
     13 C14         -0.2910   -16.4390   -12.3340 c3         1 37W      -0.152400
     14 C15          0.7340   -17.5820   -12.3420 c3         1 37W      -0.047400
     15 C16          0.4500   -18.6040   -11.2490 c3         1 37W      -0.204400
     16 C17          1.4160   -19.8050   -11.1990 c          1 37W       0.711000
     17 O18          2.0400   -20.1050   -12.2490 o          1 37W      -0.739000
     18 O19          1.4860   -20.4150   -10.0990 o          1 37W      -0.739000
     19 C20          1.0340   -11.8560   -13.2830 cd         1 37W      -0.278600
     20 C21          0.9790   -11.5710   -11.8320 c          1 37W       0.645700
     21 N22          1.0650   -10.2930   -11.4220 nt         1 37W      -0.598000
     22 O23          0.8310   -12.4850   -10.9970 o          1 37W      -0.662100
     23 C24          3.0800    -9.2330   -13.7710 ca         1 37W      -0.096000
     24 C25          3.5220    -7.9220   -13.6220 ca         1 37W      -0.082300
     25 C26          4.9210    -7.6470   -13.1450 c3         1 37W      -0.045800
     26 H1           3.4020    -5.2220   -12.7500 hc         1 37W       0.039700
     27 H2           3.9400    -5.2150   -14.4190 hc         1 37W       0.039700
     28 H3           2.2780    -4.7490   -14.0320 hc         1 37W       0.039700
     29 H4           0.6780    -6.3540   -14.5980 ha         1 37W       0.108000
     30 H5          -0.0810    -8.6890   -14.8440 ha         1 37W       0.122000
     31 H6           2.2200   -11.5310   -17.5090 hc         1 37W       0.042033
     32 H7           0.5980   -10.8430   -17.5310 hc         1 37W       0.042033
     33 H8           1.9310    -9.9270   -16.8250 hc         1 37W       0.042033
     34 H9           0.4200   -13.9820   -11.9790 hn         1 37W       0.378500
     35 H10         -0.3080   -15.9530   -11.3570 hc         1 37W       0.057700
     36 H11         -1.2900   -16.8430   -12.5220 hc         1 37W       0.057700
     37 H12          0.7240   -18.0680   -13.3170 hc         1 37W       0.054200
     38 H13          1.7360   -17.1660   -12.2050 hc         1 37W       0.054200
     39 H14          0.4510   -18.1230   -10.2680 hc         1 37W       0.019700
     40 H15         -0.5590   -19.0130   -11.3850 hc         1 37W       0.019700
     41 H17          1.0330   -10.1050   -10.4320 hn         1 37W       0.318000
     42 H18          1.1950    -9.5270   -12.0600 hn         1 37W       0.318000
     43 H19          3.7560   -10.0480   -13.5370 ha         1 37W       0.126000
     44 H20          4.9160    -7.0610   -12.2210 hc         1 37W       0.041367
     45 H21          5.4590    -8.5750   -12.9570 hc         1 37W       0.041367
     46 H22          5.4840    -7.0660   -13.8810 hc         1 37W       0.041367
     47 C01          3.0850    -5.4340   -13.7740 c3         1 37W      -0.043800
@<TRIPOS>BOND
     1     1     9 1   
     2     1    10 1   
     3     1    19 2   
     4     2     3 ar  
     5     2    24 ar  
     6     2    47 1   
     7     3     4 ar  
     8     3    29 1   
     9     4     5 ar  
    10     4    30 1   
    11     5     6 1   
    12     5    23 ar  
    13     6     7 2   
    14     6    19 1   
    15     7     8 1   
    16     7     9 1   
    17     8    31 1   
    18     8    32 1   
    19     8    33 1   
    20    10    11 1   
    21    10    34 1   
    22    11    12 2   
    23    11    13 1   
    24    13    14 1   
    25    13    35 1   
    26    13    36 1   
    27    14    15 1   
    28    14    37 1   
    29    14    38 1   
    30    15    16 1   
    31    15    39 1   
    32    15    40 1   
    33    16    17 1   
    34    16    18 1   
    35    19    20 1   
    36    20    21 1   
    37    20    22 2   
    38    21    41 1   
    39    21    42 1   
    40    23    24 ar  
    41    23    43 1   
    42    24    25 1   
    43    25    44 1   
    44    25    45 1   
    45    25    46 1   
    46    26    47 1   
    47    27    47 1   
    48    28    47 1   
@<TRIPOS>SUBSTRUCTURE
     1 37W         1 TEMP              0 ****  ****    0 ROOT
