@<TRIPOS>MOLECULE
37X
   91    92     1     0     0
SMALL
abcg2


@<TRIPOS>ATOM
      1 OAL          5.0200    -1.3510     3.2550 oh         1 37X      -0.712000
      2 OAN          6.3520     3.0080    -0.7350 oh         1 37X      -0.665000
      3 C1          -3.4170    -1.0000     0.3830 c6         1 37X       0.365300
      4 O1          -2.3710    -0.4340    -0.3100 os         1 37X      -0.449500
      5 C2          -4.2630    -1.8170    -0.5880 c6         1 37X       0.113800
      6 O2          -3.5390    -2.8970    -1.1250 oh         1 37X      -0.725000
      7 C3          -5.4530    -2.3890     0.1690 c6         1 37X       0.139300
      8 O3          -6.3650    -3.0420    -0.6800 oh         1 37X      -0.665000
      9 C4          -6.2130    -1.2810     0.8900 c6         1 37X       0.141800
     10 O4          -7.2040    -1.8090     1.7360 oh         1 37X      -0.719000
     11 C5          -5.2500    -0.4560     1.7480 c6         1 37X       0.181300
     12 O5          -4.1910     0.0250     0.9480 os         1 37X      -0.464500
     13 C6          -5.9400     0.7380     2.3730 c3         1 37X       0.171600
     14 O6          -5.0280     1.4020     3.2160 oh         1 37X      -0.712000
     15 OAP          3.5210     2.8680    -1.1620 oh         1 37X      -0.725000
     16 CBC         -0.0960    -7.6360    -1.3510 c3         1 37X      -0.088100
     17 CBD          0.0850     7.6290    -1.2920 c3         1 37X      -0.088100
     18 CBE          0.0350    -6.2810    -2.0340 c3         1 37X      -0.074400
     19 CBF         -0.0460     6.2800    -1.9870 c3         1 37X      -0.074400
     20 CBG          0.0220    -5.1220    -1.0460 c3         1 37X      -0.076900
     21 CBH         -0.0340     5.1120    -1.0090 c3         1 37X      -0.076900
     22 CBI          0.1240    -3.7560    -1.7120 c3         1 37X      -0.072400
     23 CBJ         -0.1390     3.7520    -1.6860 c3         1 37X      -0.072400
     24 CBK          0.1020    -2.6060    -0.7110 c3         1 37X      -0.078400
     25 CBL         -0.1130     2.5950    -0.6940 c3         1 37X      -0.078400
     26 CBP          5.9260    -0.7150     2.3860 c3         1 37X       0.171600
     27 CBQ          0.1100    -1.2430    -1.3950 c3         1 37X      -0.063400
     28 CBR         -0.1300     1.2360    -1.3860 c3         1 37X      -0.063400
     29 CBS         -1.2170    -0.1290     0.4480 c3         1 37X       0.169100
     30 OBV          2.3570     0.4140    -0.3160 os         1 37X      -0.449500
     31 OBX          4.1760    -0.0250     0.9520 os         1 37X      -0.464500
     32 OCB          7.1930     1.8200     1.7010 oh         1 37X      -0.719000
     33 CCF          5.2370     0.4690     1.7410 c6         1 37X       0.181300
     34 CCH          5.4390     2.3740     0.1300 c6         1 37X       0.139300
     35 CCJ          3.4010     0.9910     0.3700 c6         1 37X       0.365300
     36 CCL          4.2450     1.7940    -0.6140 c6         1 37X       0.113800
     37 CCM         -0.0080    -0.0070    -0.4830 c3         1 37X      -0.041000
     38 CCQ          6.1990     1.2780     0.8670 c6         1 37X       0.141800
     39 H1           5.4890    -2.0580     3.7060 ho         1 37X       0.504000
     40 H2           5.9510     3.8180    -1.0660 ho         1 37X       0.466000
     41 H3          -3.0410    -1.6640     1.1850 h2         1 37X       0.032700
     42 H4          -4.6280    -1.1470    -1.3810 h1         1 37X       0.067700
     43 H5          -2.8610    -2.5460    -1.7100 ho         1 37X       0.525000
     44 H6          -5.0660    -3.0820     0.9330 h1         1 37X       0.052200
     45 H7          -5.9600    -3.8520    -1.0050 ho         1 37X       0.466000
     46 H8          -6.6560    -0.6150     0.1320 h1         1 37X       0.056200
     47 H9          -7.8090    -2.3340     1.2010 ho         1 37X       0.525000
     48 H10         -4.8550    -1.1030     2.5490 h1         1 37X       0.058700
     49 H11         -6.3060     1.3940     1.5700 h1         1 37X       0.037200
     50 H12         -6.8170     0.3830     2.9240 h1         1 37X       0.037200
     51 H13         -5.4960     2.1220     3.6480 ho         1 37X       0.504000
     52 H14          2.8390     2.5120    -1.7390 ho         1 37X       0.525000
     53 H15         -1.0330    -7.7050    -0.7940 hc         1 37X       0.031033
     54 H16         -0.0800    -8.4550    -2.0720 hc         1 37X       0.031033
     55 H17          0.7180    -7.8020    -0.6430 hc         1 37X       0.031033
     56 H18          0.0680     8.4540    -2.0050 hc         1 37X       0.031033
     57 H19         -0.7310     7.7880    -0.5830 hc         1 37X       0.031033
     58 H20          1.0210     7.6930    -0.7330 hc         1 37X       0.031033
     59 H21          0.9600    -6.2500    -2.6180 hc         1 37X       0.036200
     60 H22         -0.7810    -6.1520    -2.7510 hc         1 37X       0.036200
     61 H23         -0.9720     6.2550    -2.5710 hc         1 37X       0.036200
     62 H24          0.7700     6.1580    -2.7050 hc         1 37X       0.036200
     63 H25         -0.8980    -5.1630    -0.4520 hc         1 37X       0.039200
     64 H26          0.8470    -5.2430    -0.3340 hc         1 37X       0.039200
     65 H27          0.8870     5.1470    -0.4160 hc         1 37X       0.039200
     66 H28         -0.8570     5.2290    -0.2950 hc         1 37X       0.039200
     67 H29          1.0390    -3.7030    -2.3130 hc         1 37X       0.035200
     68 H30         -0.7050    -3.6380    -2.4190 hc         1 37X       0.035200
     69 H31         -1.0560     3.7050    -2.2840 hc         1 37X       0.035200
     70 H32          0.6880     3.6390    -2.3970 hc         1 37X       0.035200
     71 H33         -0.7880    -2.7120    -0.0830 hc         1 37X       0.040950
     72 H34          0.9590    -2.7040    -0.0380 hc         1 37X       0.040950
     73 H35          0.7810     2.6950    -0.0720 hc         1 37X       0.040950
     74 H36         -0.9650     2.6910    -0.0140 hc         1 37X       0.040950
     75 H37          6.8120    -0.3540     2.9180 h1         1 37X       0.037200
     76 H38          6.2790    -1.3930     1.5950 h1         1 37X       0.037200
     77 H39          1.0220    -1.1490    -1.9930 hc         1 37X       0.046450
     78 H40         -0.7110    -1.2080    -2.1190 hc         1 37X       0.046450
     79 H41         -1.0480     1.1480    -1.9760 hc         1 37X       0.046450
     80 H42          0.6830     1.2040    -2.1180 hc         1 37X       0.046450
     81 H43         -1.3580     0.8010     1.0100 h1         1 37X       0.038450
     82 H44         -1.0410    -0.9200     1.1890 h1         1 37X       0.038450
     83 H45          1.3450    -0.8230     1.0030 h1         1 37X       0.038450
     84 H46          1.0320     0.8990     1.1890 h1         1 37X       0.038450
     85 H47          7.7860     2.3490     1.1570 ho         1 37X       0.525000
     86 H48          4.8450     1.1300     2.5320 h1         1 37X       0.058700
     87 H49          5.0590     3.0830     0.8820 h1         1 37X       0.052200
     88 H50          3.0230     1.6670     1.1610 h2         1 37X       0.032700
     89 H51          4.6060     1.1120    -1.3990 h1         1 37X       0.067700
     90 H52          6.6390     0.5980     0.1190 h1         1 37X       0.056200
     91 CBT          1.2040     0.1100     0.4450 c3         1 37X       0.169100
@<TRIPOS>BOND
     1     1    26 1   
     2     1    39 1   
     3     2    34 1   
     4     2    40 1   
     5     3     4 1   
     6     3     5 1   
     7     3    12 1   
     8     3    41 1   
     9     4    29 1   
    10     5     6 1   
    11     5     7 1   
    12     5    42 1   
    13     6    43 1   
    14     7     8 1   
    15     7     9 1   
    16     7    44 1   
    17     8    45 1   
    18     9    10 1   
    19     9    11 1   
    20     9    46 1   
    21    10    47 1   
    22    11    12 1   
    23    11    13 1   
    24    11    48 1   
    25    13    14 1   
    26    13    49 1   
    27    13    50 1   
    28    14    51 1   
    29    15    36 1   
    30    15    52 1   
    31    16    18 1   
    32    16    53 1   
    33    16    54 1   
    34    16    55 1   
    35    17    19 1   
    36    17    56 1   
    37    17    57 1   
    38    17    58 1   
    39    18    20 1   
    40    18    59 1   
    41    18    60 1   
    42    19    21 1   
    43    19    61 1   
    44    19    62 1   
    45    20    22 1   
    46    20    63 1   
    47    20    64 1   
    48    21    23 1   
    49    21    65 1   
    50    21    66 1   
    51    22    24 1   
    52    22    67 1   
    53    22    68 1   
    54    23    25 1   
    55    23    69 1   
    56    23    70 1   
    57    24    27 1   
    58    24    71 1   
    59    24    72 1   
    60    25    28 1   
    61    25    73 1   
    62    25    74 1   
    63    26    33 1   
    64    26    75 1   
    65    26    76 1   
    66    27    37 1   
    67    27    77 1   
    68    27    78 1   
    69    28    37 1   
    70    28    79 1   
    71    28    80 1   
    72    29    37 1   
    73    29    81 1   
    74    29    82 1   
    75    30    35 1   
    76    30    91 1   
    77    31    33 1   
    78    31    35 1   
    79    32    38 1   
    80    32    85 1   
    81    33    38 1   
    82    33    86 1   
    83    34    36 1   
    84    34    38 1   
    85    34    87 1   
    86    35    36 1   
    87    35    88 1   
    88    36    89 1   
    89    37    91 1   
    90    38    90 1   
    91    83    91 1   
    92    84    91 1   
@<TRIPOS>SUBSTRUCTURE
     1 37X         1 TEMP              0 ****  ****    0 ROOT
