@<TRIPOS>MOLECULE
37X
   91    92     1     0     0
SMALL
No Charge or Current Charge


@<TRIPOS>ATOM
      1 OAL          4.2760    -1.8500     3.5290 oh         1 37X      -0.712000
      2 OAN          7.1170     1.7740    -0.7760 oh         1 37X      -0.665000
      3 C1          -3.6100    -0.8150     0.3280 c6         1 37X       0.365300
      4 O1          -2.3980    -0.5430    -0.3920 os         1 37X      -0.449500
      5 C2          -4.7510    -1.1900    -0.6710 c6         1 37X       0.113800
      6 O2          -4.4150    -2.3340    -1.4940 oh         1 37X      -0.725000
      7 C3          -6.0500    -1.4560     0.1400 c6         1 37X       0.139300
      8 O3          -7.1340    -1.7770    -0.7480 oh         1 37X      -0.665000
      9 C4          -6.3980    -0.2140     1.0150 c6         1 37X       0.141800
     10 O4          -7.5800    -0.4870     1.7930 oh         1 37X      -0.719000
     11 C5          -5.1690     0.1550     1.9090 c6         1 37X       0.181300
     12 O5          -3.9960     0.3550     1.0760 os         1 37X      -0.464500
     13 C6          -5.4100     1.4560     2.7470 c3         1 37X       0.171600
     14 O6          -4.2740     1.8390     3.5510 oh         1 37X      -0.712000
     15 OAP          4.3950     2.3320    -1.5090 oh         1 37X      -0.725000
     16 CBC          1.8050    -7.5510    -1.3900 c3         1 37X      -0.088100
     17 CBD         -1.8250     7.5480    -1.3690 c3         1 37X      -0.088100
     18 CBE          1.4740    -6.2110    -2.0750 c3         1 37X      -0.074400
     19 CBF         -1.4960     6.2090    -2.0580 c3         1 37X      -0.074400
     20 CBG          1.2060    -5.0680    -1.0710 c3         1 37X      -0.076900
     21 CBH         -1.2240     5.0650    -1.0570 c3         1 37X      -0.076900
     22 CBI          0.8740    -3.7250    -1.7580 c3         1 37X      -0.072400
     23 CBJ         -0.8950     3.7240    -1.7480 c3         1 37X      -0.072400
     24 CBK          0.6070    -2.5830    -0.7540 c3         1 37X      -0.078400
     25 CBL         -0.6240     2.5790    -0.7470 c3         1 37X      -0.078400
     26 CBP          5.4080    -1.4650     2.7200 c3         1 37X       0.171600
     27 CBQ          0.2790    -1.2360    -1.4520 c3         1 37X      -0.063400
     28 CBR         -0.2990     1.2340    -1.4490 c3         1 37X      -0.063400
     29 CBS         -1.2300    -0.2880     0.4090 c3         1 37X       0.169100
     30 OBV          2.3830     0.5390    -0.4010 os         1 37X      -0.449500
     31 OBX          3.9870    -0.3610     1.0580 os         1 37X      -0.464500
     32 OCB          7.5740     0.4790     1.7610 oh         1 37X      -0.719000
     33 CCF          5.1640    -0.1630     1.8860 c6         1 37X       0.181300
     34 CCH          6.0370     1.4510     0.1160 c6         1 37X       0.139300
     35 CCJ          3.5980     0.8100     0.3140 c6         1 37X       0.365300
     36 CCL          4.7350     1.1870    -0.6900 c6         1 37X       0.113800
     37 CCM         -0.0080    -0.0020    -0.5210 c3         1 37X      -0.041000
     38 CCQ          6.3890     0.2080     0.9880 c6         1 37X       0.141800
     39 H1           4.5080    -2.7060     3.9600 ho         1 37X       0.504000
     40 H2           6.7000     2.3210    -1.4830 ho         1 37X       0.466000
     41 H3          -3.4380    -1.6540     1.0200 h2         1 37X       0.032700
     42 H4          -4.9220    -0.3120    -1.3130 h1         1 37X       0.067700
     43 H5          -3.4920    -2.1780    -1.8100 ho         1 37X       0.525000
     44 H6          -5.8590    -2.3080     0.8110 h1         1 37X       0.052200
     45 H7          -6.7200    -2.3220    -1.4580 ho         1 37X       0.466000
     46 H8          -6.5900     0.6340     0.3410 h1         1 37X       0.056200
     47 H9          -8.1770    -0.9830     1.1800 ho         1 37X       0.525000
     48 H10         -4.9690    -0.6680     2.6100 h1         1 37X       0.058700
     49 H11         -5.6680     2.2650     2.0500 h1         1 37X       0.037200
     50 H12         -6.2840     1.2920     3.3910 h1         1 37X       0.037200
     51 H13         -4.5040     2.6940     3.9840 ho         1 37X       0.504000
     52 H14          3.4700     2.1770    -1.8210 ho         1 37X       0.525000
     53 H15          0.9740    -7.8760    -0.7520 hc         1 37X       0.031033
     54 H16          1.9870    -8.3290    -2.1400 hc         1 37X       0.031033
     55 H17          2.7030    -7.4570    -0.7680 hc         1 37X       0.031033
     56 H18         -2.0100     8.3280    -2.1180 hc         1 37X       0.031033
     57 H19         -2.7200     7.4530    -0.7440 hc         1 37X       0.031033
     58 H20         -0.9910     7.8730    -0.7350 hc         1 37X       0.031033
     59 H21          2.3070    -5.9310    -2.7310 hc         1 37X       0.036200
     60 H22          0.5930    -6.3460    -2.7150 hc         1 37X       0.036200
     61 H23         -2.3330     5.9300    -2.7110 hc         1 37X       0.036200
     62 H24         -0.6190     6.3460    -2.7020 hc         1 37X       0.036200
     63 H25          0.3730    -5.3530    -0.4150 hc         1 37X       0.039200
     64 H26          2.0870    -4.9370    -0.4310 hc         1 37X       0.039200
     65 H27         -0.3880     5.3490    -0.4050 hc         1 37X       0.039200
     66 H28         -2.1030     4.9330    -0.4130 hc         1 37X       0.039200
     67 H29          1.7070    -3.4410    -2.4130 hc         1 37X       0.035200
     68 H30         -0.0080    -3.8560    -2.3980 hc         1 37X       0.035200
     69 H31         -1.7310     3.4410    -2.4000 hc         1 37X       0.035200
     70 H32         -0.0160     3.8560    -2.3910 hc         1 37X       0.035200
     71 H33         -0.2240    -2.8780    -0.1030 hc         1 37X       0.040950
     72 H34          1.4930    -2.4660    -0.1180 hc         1 37X       0.040950
     73 H35          0.2100     2.8740    -0.0990 hc         1 37X       0.040950
     74 H36         -1.5070     2.4620    -0.1080 hc         1 37X       0.040950
     75 H37          6.2850    -1.3030     3.3610 h1         1 37X       0.037200
     76 H38          5.6640    -2.2740     2.0210 h1         1 37X       0.037200
     77 H39          1.1130    -0.9900    -2.1220 hc         1 37X       0.046450
     78 H40         -0.5850    -1.3950    -2.1100 hc         1 37X       0.046450
     79 H41         -1.1350     0.9890    -2.1150 hc         1 37X       0.046450
     80 H42          0.5620     1.3940    -2.1100 hc         1 37X       0.046450
     81 H43         -1.3960     0.5710     1.0710 h1         1 37X       0.038450
     82 H44         -1.0140    -1.1480     1.0560 h1         1 37X       0.038450
     83 H45          1.3870    -0.5780     1.0640 h1         1 37X       0.038450
     84 H46          1.0050     1.1410     1.0540 h1         1 37X       0.038450
     85 H47          8.1680     0.9760     1.1460 ho         1 37X       0.525000
     86 H48          4.9670     0.6590     2.5900 h1         1 37X       0.058700
     87 H49          5.8480     2.3020     0.7890 h1         1 37X       0.052200
     88 H50          3.4280     1.6470     1.0080 h2         1 37X       0.032700
     89 H51          4.9020     0.3100    -1.3340 h1         1 37X       0.067700
     90 H52          6.5780    -0.6390     0.3110 h1         1 37X       0.056200
     91 CBT          1.2180     0.2820     0.4040 c3         1 37X       0.169100
@<TRIPOS>BOND
     1     1    26 1   
     2     1    39 1   
     3     2    34 1   
     4     2    40 1   
     5     3     4 1   
     6     3     5 1   
     7     3    12 1   
     8     3    41 1   
     9     4    29 1   
    10     5     6 1   
    11     5     7 1   
    12     5    42 1   
    13     6    43 1   
    14     7     8 1   
    15     7     9 1   
    16     7    44 1   
    17     8    45 1   
    18     9    10 1   
    19     9    11 1   
    20     9    46 1   
    21    10    47 1   
    22    11    12 1   
    23    11    13 1   
    24    11    48 1   
    25    13    14 1   
    26    13    49 1   
    27    13    50 1   
    28    14    51 1   
    29    15    36 1   
    30    15    52 1   
    31    16    18 1   
    32    16    53 1   
    33    16    54 1   
    34    16    55 1   
    35    17    19 1   
    36    17    56 1   
    37    17    57 1   
    38    17    58 1   
    39    18    20 1   
    40    18    59 1   
    41    18    60 1   
    42    19    21 1   
    43    19    61 1   
    44    19    62 1   
    45    20    22 1   
    46    20    63 1   
    47    20    64 1   
    48    21    23 1   
    49    21    65 1   
    50    21    66 1   
    51    22    24 1   
    52    22    67 1   
    53    22    68 1   
    54    23    25 1   
    55    23    69 1   
    56    23    70 1   
    57    24    27 1   
    58    24    71 1   
    59    24    72 1   
    60    25    28 1   
    61    25    73 1   
    62    25    74 1   
    63    26    33 1   
    64    26    75 1   
    65    26    76 1   
    66    27    37 1   
    67    27    77 1   
    68    27    78 1   
    69    28    37 1   
    70    28    79 1   
    71    28    80 1   
    72    29    37 1   
    73    29    81 1   
    74    29    82 1   
    75    30    35 1   
    76    30    91 1   
    77    31    33 1   
    78    31    35 1   
    79    32    38 1   
    80    32    85 1   
    81    33    38 1   
    82    33    86 1   
    83    34    36 1   
    84    34    38 1   
    85    34    87 1   
    86    35    36 1   
    87    35    88 1   
    88    36    89 1   
    89    37    91 1   
    90    38    90 1   
    91    83    91 1   
    92    84    91 1   
@<TRIPOS>SUBSTRUCTURE
     1 37X         1 TEMP              0 ****  ****    0 ROOT
