@<TRIPOS>MOLECULE
37Y
   90    92     1     0     0
SMALL
No Charge or Current Charge


@<TRIPOS>ATOM
      1 C2          -4.4890    -2.5820    -0.5190 c          1 37Y       0.598100
      2 O3          -4.5630    -3.4790     0.3120 o          1 37Y      -0.586100
      3 C4          -5.5820    -2.3290    -1.5980 c3         1 37Y       0.089800
      4 N5          -6.6230    -1.2860    -1.3090 n3         1 37Y      -0.693600
      5 O8          -8.1830     1.1100    -1.8470 os         1 37Y      -0.452000
      6 C6          -6.0670     0.0890    -1.0870 c6         1 37Y       0.126300
      7 C10         -7.7060    -1.2580    -2.3410 c6         1 37Y       0.126300
      8 C7          -7.1870     1.1310    -0.7960 c6         1 37Y       0.154100
      9 C9          -8.7930    -0.1920    -2.0110 c6         1 37Y       0.154100
     10 N1          -3.4150    -1.7160    -0.5710 ns         1 37Y      -0.506900
     11 C11         -2.2940    -1.6510     0.3920 c3         1 37Y       0.035700
     12 C12         -2.7900    -1.2020     1.7910 c3         1 37Y      -0.106100
     13 C13         -1.1830    -0.7100    -0.1660 c          1 37Y       0.599100
     14 O14         -1.2790    -0.1480    -1.2510 o          1 37Y      -0.609100
     15 N15         -0.0750    -0.5430     0.6410 ns         1 37Y      -0.487900
     16 C16          1.0070     0.4420     0.3990 c3         1 37Y       0.033700
     17 C17          0.7600     1.7480     1.2050 c3         1 37Y      -0.037100
     18 C18         -0.6680     2.2780     1.0880 ca         1 37Y      -0.120300
     19 C19         -1.1170     2.8510    -0.1160 ca         1 37Y      -0.062000
     20 C20         -2.4450     3.2960    -0.2350 ca         1 37Y      -0.169500
     21 C21         -3.3350     3.1790     0.8440 ca         1 37Y       0.144100
     22 O22         -4.6310     3.6190     0.6640 os         1 37Y      -0.341100
     23 C23         -5.6200     3.5370     1.7050 c3         1 37Y       0.148900
     24 C24         -2.8830     2.6210     2.0590 ca         1 37Y      -0.169500
     25 C25         -1.5560     2.1740     2.1770 ca         1 37Y      -0.062000
     26 C26          2.3950    -0.1730     0.7290 c          1 37Y       0.590100
     27 O27          2.5310    -1.2260     1.3410 o          1 37Y      -0.605100
     28 N28          3.4780     0.5610     0.2860 ns         1 37Y      -0.482900
     29 C29          4.9010     0.1720     0.4410 c3         1 37Y       0.010700
     30 C30          5.4810    -0.3980    -0.8840 c3         1 37Y      -0.084400
     31 C41          4.8330    -1.7140    -1.4180 c6         1 37Y      -0.057700
     32 C42          5.3470    -2.0420    -2.8480 c6         1 37Y      -0.073400
     33 C43          4.7050    -3.3370    -3.4030 c6         1 37Y      -0.072900
     34 C44          4.9490    -4.5340    -2.4530 c6         1 37Y      -0.075400
     35 C45          4.4440    -4.2220    -1.0250 c6         1 37Y      -0.072900
     36 C46          5.0860    -2.9250    -0.4720 c6         1 37Y      -0.073400
     37 C31          5.7380     1.3780     0.9570 c          1 37Y       0.563100
     38 O32          5.3410     2.5360     0.8590 o          1 37Y      -0.517100
     39 C37          7.0870     1.0480     1.6230 c3         1 37Y      -0.164700
     40 C38          7.0770     1.4460     3.1230 c3         1 37Y      -0.080100
     41 C39          8.2350     1.7040     0.8260 c3         1 37Y       0.172600
     42 O40          9.4960     1.2150     1.2960 oh         1 37Y      -0.664000
     43 H1          -5.0600    -2.0820    -2.5320 h1         1 37Y       0.049200
     44 H2          -6.0740    -3.2970    -1.7630 h1         1 37Y       0.049200
     45 H4          -5.3710     0.0920    -0.2360 h1         1 37Y       0.041950
     46 H5          -5.5010     0.4200    -1.9710 h1         1 37Y       0.041950
     47 H6          -7.2840    -1.0340    -3.3310 h1         1 37Y       0.041950
     48 H7          -8.1900    -2.2430    -2.4120 h1         1 37Y       0.041950
     49 H8          -6.7530     2.1380    -0.7330 h1         1 37Y       0.053200
     50 H9          -7.6690     0.9040     0.1660 h1         1 37Y       0.053200
     51 H10         -9.3200    -0.4670    -1.0860 h1         1 37Y       0.053200
     52 H11         -9.5300    -0.1450    -2.8250 h1         1 37Y       0.053200
     53 H12         -3.4270    -1.0290    -1.3180 hn         1 37Y       0.336500
     54 H13         -1.8470    -2.6500     0.4800 h1         1 37Y       0.086700
     55 H14         -3.2620    -0.2140     1.7320 hc         1 37Y       0.049033
     56 H15         -3.5270    -1.9060     2.1940 hc         1 37Y       0.049033
     57 H16         -1.9640    -1.1450     2.5090 hc         1 37Y       0.049033
     58 H17         -0.0430    -1.0880     1.4950 hn         1 37Y       0.336500
     59 H18          1.0240     0.6910    -0.6700 h1         1 37Y       0.091700
     60 H19          1.0000     1.5580     2.2590 hc         1 37Y       0.062200
     61 H20          1.4680     2.5180     0.8730 hc         1 37Y       0.062200
     62 H21         -0.4430     2.9360    -0.9660 ha         1 37Y       0.109000
     63 H27         -1.2230     1.7320     3.1140 ha         1 37Y       0.109000
     64 H22         -2.7890     3.7260    -1.1720 ha         1 37Y       0.122000
     65 H26         -3.5440     2.5190     2.9140 ha         1 37Y       0.122000
     66 H23         -6.5780     3.9380     1.3520 h1         1 37Y       0.040367
     67 H24         -5.7800     2.4940     2.0080 h1         1 37Y       0.040367
     68 H25         -5.3110     4.1170     2.5840 h1         1 37Y       0.040367
     69 H28          3.2730     1.4350    -0.1860 hn         1 37Y       0.323500
     70 H29          4.9760    -0.5960     1.2210 h1         1 37Y       0.091700
     71 H30          5.3940     0.3850    -1.6490 hc         1 37Y       0.053200
     72 H31          6.5580    -0.5650    -0.7560 hc         1 37Y       0.053200
     73 H32          3.7500    -1.5370    -1.4810 hc         1 37Y       0.046700
     74 H33          5.1250    -1.2070    -3.5270 hc         1 37Y       0.040450
     75 H34          6.4410    -2.1500    -2.8360 hc         1 37Y       0.040450
     76 H35          3.6250    -3.1860    -3.5390 hc         1 37Y       0.040700
     77 H36          5.1160    -3.5610    -4.3970 hc         1 37Y       0.040700
     78 H37          4.4430    -5.4290    -2.8420 hc         1 37Y       0.040200
     79 H38          6.0220    -4.7710    -2.4230 hc         1 37Y       0.040200
     80 H39          3.3500    -4.1170    -1.0330 hc         1 37Y       0.040700
     81 H40          4.6710    -5.0640    -0.3570 hc         1 37Y       0.040700
     82 H41          6.1670    -3.0780    -0.3430 hc         1 37Y       0.040450
     83 H42          4.6810    -2.7270     0.5280 hc         1 37Y       0.040450
     84 H45          7.2250    -0.0380     1.5730 hc         1 37Y       0.070700
     85 H46          6.2440     0.9600     3.6450 hc         1 37Y       0.049367
     86 H47          8.0070     1.1390     3.6170 hc         1 37Y       0.049367
     87 H48          6.9690     2.5310     3.2410 hc         1 37Y       0.049367
     88 H49          8.1170     1.4660    -0.2400 h1         1 37Y       0.029200
     89 H50          8.1810     2.7960     0.9330 h1         1 37Y       0.029200
     90 H51         10.1940     1.6710     0.7730 ho         1 37Y       0.447000
@<TRIPOS>BOND
     1     1     2 2   
     2     1     3 1   
     3     1    10 1   
     4     3     4 1   
     5     3    43 1   
     6     3    44 1   
     7     4     6 1   
     8     4     7 1   
     9     5     8 1   
    10     5     9 1   
    11     6     8 1   
    12     6    45 1   
    13     6    46 1   
    14     7     9 1   
    15     7    47 1   
    16     7    48 1   
    17     8    49 1   
    18     8    50 1   
    19     9    51 1   
    20     9    52 1   
    21    10    11 1   
    22    10    53 1   
    23    11    12 1   
    24    11    13 1   
    25    11    54 1   
    26    12    55 1   
    27    12    56 1   
    28    12    57 1   
    29    13    14 2   
    30    13    15 1   
    31    15    16 1   
    32    15    58 1   
    33    16    17 1   
    34    16    26 1   
    35    16    59 1   
    36    17    18 1   
    37    17    60 1   
    38    17    61 1   
    39    18    19 ar  
    40    18    25 ar  
    41    19    20 ar  
    42    19    62 1   
    43    20    21 ar  
    44    20    64 1   
    45    21    22 1   
    46    21    24 ar  
    47    22    23 1   
    48    23    66 1   
    49    23    67 1   
    50    23    68 1   
    51    24    25 ar  
    52    24    65 1   
    53    25    63 1   
    54    26    27 2   
    55    26    28 1   
    56    28    29 1   
    57    28    69 1   
    58    29    30 1   
    59    29    37 1   
    60    29    70 1   
    61    30    31 1   
    62    30    71 1   
    63    30    72 1   
    64    31    32 1   
    65    31    36 1   
    66    31    73 1   
    67    32    33 1   
    68    32    74 1   
    69    32    75 1   
    70    33    34 1   
    71    33    76 1   
    72    33    77 1   
    73    34    35 1   
    74    34    78 1   
    75    34    79 1   
    76    35    36 1   
    77    35    80 1   
    78    35    81 1   
    79    36    82 1   
    80    36    83 1   
    81    37    38 2   
    82    37    39 1   
    83    39    40 1   
    84    39    41 1   
    85    39    84 1   
    86    40    85 1   
    87    40    86 1   
    88    40    87 1   
    89    41    42 1   
    90    41    88 1   
    91    41    89 1   
    92    42    90 1   
@<TRIPOS>SUBSTRUCTURE
     1 37Y         1 TEMP              0 ****  ****    0 ROOT
