@<TRIPOS>MOLECULE
37Y
   90    92     1     0     0
SMALL
bcc


@<TRIPOS>ATOM
      1 C2          -4.4200    -1.6900     0.5010 c          1 37Y       0.665100
      2 O3          -4.4010    -2.2370     1.5930 o          1 37Y      -0.586100
      3 C4          -5.3900    -2.0890    -0.6000 c3         1 37Y       0.089800
      4 N5          -6.6420    -2.5670    -0.0790 n3         1 37Y      -0.693600
      5 O8          -9.4710    -2.7320     0.0730 os         1 37Y      -0.405600
      6 C6          -7.4310    -1.5060     0.5220 c6         1 37Y       0.126300
      7 C10         -7.4170    -3.2490    -1.1000 c6         1 37Y       0.126300
      8 C7          -8.7270    -2.0700     1.0710 c6         1 37Y       0.130900
      9 C9          -8.7120    -3.7710    -0.5080 c6         1 37Y       0.130900
     10 N1          -3.5600    -0.7210     0.1500 ns         1 37Y      -0.573900
     11 C11         -2.4890    -0.2750     1.0030 c3         1 37Y       0.035700
     12 C12         -2.9410     0.8190     1.9730 c3         1 37Y      -0.106100
     13 C13         -1.3430     0.2210     0.1220 c          1 37Y       0.666100
     14 O14         -1.5030     0.4830    -1.0590 o          1 37Y      -0.609100
     15 N15         -0.1750     0.3460     0.7700 ns         1 37Y      -0.554900
     16 C16          1.0270     0.8590     0.1720 c3         1 37Y       0.033700
     17 C17          1.2940     2.3250     0.5750 c3         1 37Y      -0.037100
     18 C18          0.1500     3.2250     0.2140 ca         1 37Y      -0.120300
     19 C19         -0.0250     3.6720    -1.0960 ca         1 37Y      -0.080000
     20 C20         -1.0950     4.4700    -1.4480 ca         1 37Y      -0.187500
     21 C21         -2.0370     4.8460    -0.4870 ca         1 37Y       0.144100
     22 O22         -3.0510     5.6240    -0.9160 os         1 37Y      -0.317900
     23 C23         -4.0210     6.0410     0.0220 c3         1 37Y       0.125700
     24 C24         -1.8780     4.4120     0.8250 ca         1 37Y      -0.187500
     25 C25         -0.7910     3.6090     1.1570 ca         1 37Y      -0.080000
     26 C26          2.2090     0.0100     0.6220 c          1 37Y       0.657100
     27 O27          2.2030    -0.5900     1.6850 o          1 37Y      -0.605100
     28 N28          3.2640     0.0190    -0.2060 ns         1 37Y      -0.549900
     29 C29          4.5370    -0.5120     0.2000 c3         1 37Y       0.010700
     30 C30          5.5260    -0.4820    -0.9690 c3         1 37Y      -0.084400
     31 C41          5.0970    -1.2910    -2.1950 c6         1 37Y      -0.057700
     32 C42          6.2000    -1.2320    -3.2540 c6         1 37Y      -0.073400
     33 C43          5.8490    -2.0360    -4.5010 c6         1 37Y      -0.072900
     34 C44          5.5210    -3.4830    -4.1500 c6         1 37Y      -0.075400
     35 C45          4.4150    -3.5520    -3.1040 c6         1 37Y      -0.072900
     36 C46          4.7610    -2.7430    -1.8570 c6         1 37Y      -0.073400
     37 C31          5.1210     0.2840     1.3640 c          1 37Y       0.563100
     38 O32          4.7950     1.4280     1.5690 o          1 37Y      -0.517100
     39 C37          6.1150    -0.4540     2.2290 c3         1 37Y      -0.164700
     40 C38          5.3320    -1.2470     3.2840 c3         1 37Y      -0.080100
     41 C39          7.1230     0.5000     2.8520 c3         1 37Y       0.149400
     42 O40          8.0770    -0.2630     3.5540 oh         1 37Y      -0.601800
     43 H1          -5.5180    -1.2600    -1.3160 h1         1 37Y       0.049200
     44 H2          -4.9090    -2.9010    -1.1570 h1         1 37Y       0.049200
     45 H4          -6.8780    -1.0510     1.3470 h1         1 37Y       0.041950
     46 H5          -7.6510    -0.7050    -0.2050 h1         1 37Y       0.041950
     47 H6          -7.6450    -2.5900    -1.9540 h1         1 37Y       0.041950
     48 H7          -6.8410    -4.0930    -1.4890 h1         1 37Y       0.041950
     49 H8          -9.3480    -1.2650     1.4640 h1         1 37Y       0.053200
     50 H9          -8.4990    -2.7580     1.8980 h1         1 37Y       0.053200
     51 H10         -8.4860    -4.5430     0.2410 h1         1 37Y       0.053200
     52 H11         -9.3220    -4.2270    -1.2880 h1         1 37Y       0.053200
     53 H12         -3.6310    -0.2970    -0.7630 hn         1 37Y       0.336500
     54 H13         -2.1330    -1.1310     1.5820 h1         1 37Y       0.086700
     55 H14         -3.2400     1.7190     1.4370 hc         1 37Y       0.049033
     56 H15         -3.7870     0.4610     2.5580 hc         1 37Y       0.049033
     57 H16         -2.1440     1.0840     2.6680 hc         1 37Y       0.049033
     58 H17         -0.1250     0.0850     1.7430 hn         1 37Y       0.336500
     59 H18          0.9180     0.7980    -0.9130 h1         1 37Y       0.091700
     60 H19          1.4800     2.3650     1.6510 hc         1 37Y       0.062200
     61 H20          2.2120     2.6600     0.0850 hc         1 37Y       0.062200
     62 H21          0.6940     3.3930    -1.8590 ha         1 37Y       0.127000
     63 H27         -0.6830     3.2820     2.1840 ha         1 37Y       0.127000
     64 H22         -1.2100     4.8110    -2.4700 ha         1 37Y       0.140000
     65 H26         -2.5810     4.6840     1.6010 ha         1 37Y       0.140000
     66 H23         -4.7370     6.6530    -0.5220 h1         1 37Y       0.040367
     67 H24         -4.5520     5.1960     0.4680 h1         1 37Y       0.040367
     68 H25         -3.5840     6.6430     0.8230 h1         1 37Y       0.040367
     69 H28          3.2290     0.5940    -1.0350 hn         1 37Y       0.323500
     70 H29          4.4130    -1.5480     0.5300 h1         1 37Y       0.091700
     71 H30          5.7020     0.5580    -1.2630 hc         1 37Y       0.053200
     72 H31          6.4870    -0.8670    -0.6140 hc         1 37Y       0.053200
     73 H32          4.1990    -0.8310    -2.6290 hc         1 37Y       0.046700
     74 H33          6.4020    -0.1910    -3.5220 hc         1 37Y       0.040450
     75 H34          7.1280    -1.6250    -2.8210 hc         1 37Y       0.040450
     76 H35          4.9870    -1.5790    -4.9990 hc         1 37Y       0.040700
     77 H36          6.6760    -1.9940    -5.2150 hc         1 37Y       0.040700
     78 H37          5.2280    -4.0350    -5.0470 hc         1 37Y       0.040200
     79 H38          6.4210    -3.9760    -3.7630 hc         1 37Y       0.040200
     80 H39          3.4860    -3.1650    -3.5350 hc         1 37Y       0.040700
     81 H40          4.2160    -4.5900    -2.8270 hc         1 37Y       0.040700
     82 H41          5.6190    -3.2000    -1.3470 hc         1 37Y       0.040450
     83 H42          3.9230    -2.7900    -1.1570 hc         1 37Y       0.040450
     84 H45          6.6510    -1.1710     1.5970 hc         1 37Y       0.070700
     85 H46          4.6160    -1.9270     2.8250 hc         1 37Y       0.049367
     86 H47          6.0130    -1.8400     3.8900 hc         1 37Y       0.049367
     87 H48          4.7810    -0.5750     3.9430 hc         1 37Y       0.049367
     88 H49          7.5970     1.0990     2.0630 h1         1 37Y       0.029200
     89 H50          6.6000     1.2000     3.5160 h1         1 37Y       0.029200
     90 H51          8.6650     0.3420     4.0150 ho         1 37Y       0.408000
@<TRIPOS>BOND
     1     1     2 2   
     2     1     3 1   
     3     1    10 1   
     4     3     4 1   
     5     3    43 1   
     6     3    44 1   
     7     4     6 1   
     8     4     7 1   
     9     5     8 1   
    10     5     9 1   
    11     6     8 1   
    12     6    45 1   
    13     6    46 1   
    14     7     9 1   
    15     7    47 1   
    16     7    48 1   
    17     8    49 1   
    18     8    50 1   
    19     9    51 1   
    20     9    52 1   
    21    10    11 1   
    22    10    53 1   
    23    11    12 1   
    24    11    13 1   
    25    11    54 1   
    26    12    55 1   
    27    12    56 1   
    28    12    57 1   
    29    13    14 2   
    30    13    15 1   
    31    15    16 1   
    32    15    58 1   
    33    16    17 1   
    34    16    26 1   
    35    16    59 1   
    36    17    18 1   
    37    17    60 1   
    38    17    61 1   
    39    18    19 ar  
    40    18    25 ar  
    41    19    20 ar  
    42    19    62 1   
    43    20    21 ar  
    44    20    64 1   
    45    21    22 1   
    46    21    24 ar  
    47    22    23 1   
    48    23    66 1   
    49    23    67 1   
    50    23    68 1   
    51    24    25 ar  
    52    24    65 1   
    53    25    63 1   
    54    26    27 2   
    55    26    28 1   
    56    28    29 1   
    57    28    69 1   
    58    29    30 1   
    59    29    37 1   
    60    29    70 1   
    61    30    31 1   
    62    30    71 1   
    63    30    72 1   
    64    31    32 1   
    65    31    36 1   
    66    31    73 1   
    67    32    33 1   
    68    32    74 1   
    69    32    75 1   
    70    33    34 1   
    71    33    76 1   
    72    33    77 1   
    73    34    35 1   
    74    34    78 1   
    75    34    79 1   
    76    35    36 1   
    77    35    80 1   
    78    35    81 1   
    79    36    82 1   
    80    36    83 1   
    81    37    38 2   
    82    37    39 1   
    83    39    40 1   
    84    39    41 1   
    85    39    84 1   
    86    40    85 1   
    87    40    86 1   
    88    40    87 1   
    89    41    42 1   
    90    41    88 1   
    91    41    89 1   
    92    42    90 1   
@<TRIPOS>SUBSTRUCTURE
     1 37Y         1 TEMP              0 ****  ****    0 ROOT
