@<TRIPOS>MOLECULE
37Z
   32    31     1     0     0
SMALL
No Charge or Current Charge


@<TRIPOS>ATOM
      1 N01          6.2860     0.2010     0.0040 n8         1 37Z      -0.996700
      2 C02          5.0220    -0.5540     0.0710 c3         1 37Z       0.150300
      3 C03          3.7990     0.3790    -0.0350 c3         1 37Z      -0.078400
      4 C04          2.4560    -0.3830     0.0290 c3         1 37Z      -0.079400
      5 C05          1.2310     0.5480    -0.0770 c3         1 37Z       0.160800
      6 N06         -0.0130    -0.2370    -0.0040 n7         1 37Z      -0.862400
      7 C07         -1.2550     0.5530    -0.0840 c3         1 37Z       0.160800
      8 C08         -2.4830    -0.3740     0.0160 c3         1 37Z      -0.079400
      9 C09         -3.8230     0.3920    -0.0560 c3         1 37Z      -0.078400
     10 C10         -5.0510    -0.5360     0.0430 c3         1 37Z       0.150300
     11 N11         -6.3120     0.2230    -0.0320 n8         1 37Z      -0.996700
     12 H011         6.3460     0.8240     0.8190 hn         1 37Z       0.391500
     13 HN01         7.0710    -0.4480     0.1400 hn         1 37Z       0.391500
     14 H021         5.0050    -1.2830    -0.7510 h1         1 37Z       0.026450
     15 H022         4.9900    -1.1030     1.0230 h1         1 37Z       0.026450
     16 H031         3.8320     1.1150     0.7780 hc         1 37Z       0.045700
     17 H032         3.8500     0.9360    -0.9780 hc         1 37Z       0.045700
     18 H042         2.4220    -1.1200    -0.7830 hc         1 37Z       0.043950
     19 H041         2.4040    -0.9410     0.9730 hc         1 37Z       0.043950
     20 H1           1.2680     1.2820     0.7410 h1         1 37Z       0.028700
     21 H2           1.2810     1.1000    -1.0260 h1         1 37Z       0.028700
     22 H3          -0.0120    -0.9070    -0.7820 hn         1 37Z       0.403000
     23 H071        -1.2930     1.2870     0.7330 h1         1 37Z       0.028700
     24 H072        -1.2970     1.1040    -1.0330 h1         1 37Z       0.028700
     25 H081        -2.4470    -1.1110    -0.7970 hc         1 37Z       0.043950
     26 H082        -2.4390    -0.9320     0.9600 hc         1 37Z       0.043950
     27 H091        -3.8580     1.1290     0.7560 hc         1 37Z       0.045700
     28 H092        -3.8670     0.9500    -1.0000 hc         1 37Z       0.045700
     29 H101        -5.0310    -1.2660    -0.7780 h1         1 37Z       0.026450
     30 H102        -5.0250    -1.0840     0.9960 h1         1 37Z       0.026450
     31 HN11        -7.1000    -0.4230     0.1010 hn         1 37Z       0.391500
     32 H112        -6.3740     0.8470     0.7830 hn         1 37Z       0.391500
@<TRIPOS>BOND
     1     1     2 1   
     2     1    12 1   
     3     1    13 1   
     4     2     3 1   
     5     2    14 1   
     6     2    15 1   
     7     3     4 1   
     8     3    16 1   
     9     3    17 1   
    10     4     5 1   
    11     4    18 1   
    12     4    19 1   
    13     5     6 1   
    14     5    20 1   
    15     5    21 1   
    16     6     7 1   
    17     6    22 1   
    18     7     8 1   
    19     7    23 1   
    20     7    24 1   
    21     8     9 1   
    22     8    25 1   
    23     8    26 1   
    24     9    10 1   
    25     9    27 1   
    26     9    28 1   
    27    10    11 1   
    28    10    29 1   
    29    10    30 1   
    30    11    31 1   
    31    11    32 1   
@<TRIPOS>SUBSTRUCTURE
     1 37Z         1 TEMP              0 ****  ****    0 ROOT
