@<TRIPOS>MOLECULE
37Z
   32    31     1     0     0
SMALL
bcc


@<TRIPOS>ATOM
      1 N01          6.1810     0.3320    -0.0310 n8         1 37Z      -0.886300
      2 C02          4.9760    -0.4830     0.0360 c3         1 37Z       0.150300
      3 C03          3.7280     0.3840    -0.0260 c3         1 37Z      -0.078400
      4 C04          2.4430    -0.4300     0.0510 c3         1 37Z      -0.079400
      5 C05          1.1970     0.4380    -0.0280 c3         1 37Z       0.160800
      6 N06         -0.0130    -0.3540     0.0720 n7         1 37Z      -0.807200
      7 C07         -1.2210     0.4400    -0.0400 c3         1 37Z       0.160800
      8 C08         -2.4700    -0.4210     0.0640 c3         1 37Z      -0.079400
      9 C09         -3.7520     0.3890    -0.0720 c3         1 37Z      -0.078400
     10 C10         -5.0040    -0.4670     0.0440 c3         1 37Z       0.150300
     11 N11         -6.2060     0.3410    -0.1000 n8         1 37Z      -0.886300
     12 H011         6.2510     0.8890     0.8130 hn         1 37Z       0.336300
     13 HN01         6.9970    -0.2680    -0.0250 hn         1 37Z       0.336300
     14 H021         4.9770    -1.1660    -0.8180 h1         1 37Z       0.026450
     15 H022         4.9250    -1.1160     0.9340 h1         1 37Z       0.026450
     16 H031         3.7500     1.1070     0.7970 hc         1 37Z       0.045700
     17 H032         3.7460     0.9690    -0.9510 hc         1 37Z       0.045700
     18 H042         2.4270    -1.1610    -0.7650 hc         1 37Z       0.043950
     19 H041         2.4210    -1.0050     0.9820 hc         1 37Z       0.043950
     20 H1           1.2050     1.1560     0.8000 h1         1 37Z       0.028700
     21 H2           1.2320     1.0400    -0.9520 h1         1 37Z       0.028700
     22 H3          -0.0100    -1.0420    -0.6730 hn         1 37Z       0.347800
     23 H071        -1.2230     1.1760     0.7720 h1         1 37Z       0.028700
     24 H072        -1.2570     1.0230    -0.9760 h1         1 37Z       0.028700
     25 H081        -2.4450    -1.1920    -0.7150 hc         1 37Z       0.043950
     26 H082        -2.4620    -0.9490     1.0220 hc         1 37Z       0.043950
     27 H091        -3.7740     1.1670     0.7000 hc         1 37Z       0.045700
     28 H092        -3.7650     0.9100    -1.0350 hc         1 37Z       0.045700
     29 H101        -4.9980    -1.2160    -0.7530 h1         1 37Z       0.026450
     30 H102        -4.9630    -1.0280     0.9900 h1         1 37Z       0.026450
     31 HN11        -7.0220    -0.2570    -0.0640 hn         1 37Z       0.336300
     32 H112        -6.2890     0.9600     0.6980 hn         1 37Z       0.336300
@<TRIPOS>BOND
     1     1     2 1   
     2     1    12 1   
     3     1    13 1   
     4     2     3 1   
     5     2    14 1   
     6     2    15 1   
     7     3     4 1   
     8     3    16 1   
     9     3    17 1   
    10     4     5 1   
    11     4    18 1   
    12     4    19 1   
    13     5     6 1   
    14     5    20 1   
    15     5    21 1   
    16     6     7 1   
    17     6    22 1   
    18     7     8 1   
    19     7    23 1   
    20     7    24 1   
    21     8     9 1   
    22     8    25 1   
    23     8    26 1   
    24     9    10 1   
    25     9    27 1   
    26     9    28 1   
    27    10    11 1   
    28    10    29 1   
    29    10    30 1   
    30    11    31 1   
    31    11    32 1   
@<TRIPOS>SUBSTRUCTURE
     1 37Z         1 TEMP              0 ****  ****    0 ROOT
