@<TRIPOS>MOLECULE
380
   57    59     1     0     0
SMALL
No Charge or Current Charge


@<TRIPOS>ATOM
      1 C1           6.5020     0.4600     0.9880 ce         1 380       0.668800
      2 N1           6.5960    -0.3550     2.0590 nv         1 380      -1.072200
      3 N2           7.5660     0.7880     0.3820 n2         1 380      -0.835100
      4 C2           5.1340     0.8200     0.5020 ca         1 380      -0.203900
      5 C3           4.9400     1.2360    -0.8350 ca         1 380      -0.032000
      6 C4           3.6640     1.6080    -1.2930 ca         1 380      -0.198000
      7 C5           2.5650     1.5830    -0.4280 ca         1 380       0.345000
      8 N3           1.3130     1.9580    -0.9090 nu         1 380      -0.957200
      9 C11         -0.0140     1.4590    -0.4340 c3         1 380       0.207800
     10 C22         -1.2330     2.0020    -1.2720 c          1 380       0.601100
     11 N24         -2.4730     1.7840    -0.7100 ns         1 380      -0.492900
     12 C25         -3.7380     2.1760    -1.3250 c3         1 380       0.143300
     13 C26         -4.9140     1.6620    -0.5110 ca         1 380      -0.120300
     14 C27         -5.5530     2.4990     0.4260 ca         1 380      -0.101000
     15 C28         -6.6360     2.0180     1.1820 ca         1 380      -0.110000
     16 C29         -7.0860     0.6980     1.0070 ca         1 380      -0.106000
     17 C30         -6.4510    -0.1410     0.0760 ca         1 380      -0.110000
     18 C31         -5.3680     0.3390    -0.6800 ca         1 380      -0.101000
     19 O23         -1.1100     2.5710    -2.3540 o          1 380      -0.599100
     20 C12         -0.0210    -0.0730    -0.4070 ca         1 380      -0.131300
     21 C17         -0.2280    -0.7620     0.8050 ca         1 380      -0.167000
     22 C19         -0.2390    -2.1760     0.8360 ca         1 380       0.113100
     23 O2          -0.4370    -2.8780     2.0150 os         1 380      -0.319100
     24 C24         -0.6370    -2.2250     3.2800 c3         1 380       0.143900
     25 C20         -0.0430    -2.9050    -0.3610 ca         1 380       0.117100
     26 O3          -0.0580    -4.2900    -0.3070 os         1 380      -0.321100
     27 C32          0.1320    -5.1110    -1.4720 c3         1 380       0.143900
     28 C16          0.1720    -0.8060    -1.5930 ca         1 380      -0.077000
     29 C18          0.1610    -2.2100    -1.5750 ca         1 380      -0.171000
     30 C6           2.7490     1.2030     0.9100 ca         1 380      -0.198000
     31 C7           4.0210     0.8290     1.3760 ca         1 380      -0.032000
     32 H1N1         5.7390    -0.8370     2.3010 hn         1 380       0.455000
     33 H1N2         7.4370    -0.9160     2.1200 hn         1 380       0.455000
     34 HN2          8.3570     0.5870     1.0020 hn         1 380       0.367400
     35 H3           5.7780     1.2640    -1.5300 ha         1 380       0.122000
     36 H4           3.5350     1.9120    -2.3280 ha         1 380       0.114500
     37 HA           1.3140     2.3400    -1.8580 hn         1 380       0.505000
     38 H11         -0.1780     1.8230     0.5900 h1         1 380       0.070700
     39 H24         -2.5020     1.2890     0.1720 hn         1 380       0.312500
     40 H251        -3.7780     3.2710    -1.3970 h1         1 380       0.069200
     41 H252        -3.7850     1.7670    -2.3440 h1         1 380       0.069200
     42 H27         -5.2090     3.5210     0.5700 ha         1 380       0.116000
     43 H28         -7.1260     2.6680     1.9040 ha         1 380       0.116500
     44 H29         -7.9240     0.3260     1.5930 ha         1 380       0.114000
     45 H30         -6.7970    -1.1640    -0.0590 ha         1 380       0.116500
     46 H31         -4.8790    -0.3180    -1.3970 ha         1 380       0.116000
     47 H17         -0.3760    -0.1860     1.7140 ha         1 380       0.113000
     48 H241        -0.7710    -2.9700     4.0750 h1         1 380       0.041033
     49 H242         0.2290    -1.6030     3.5400 h1         1 380       0.041033
     50 H243        -1.5330    -1.5910     3.2550 h1         1 380       0.041033
     51 H321         1.1130    -4.9230    -1.9260 h1         1 380       0.041700
     52 H322         0.0820    -6.1730    -1.2000 h1         1 380       0.041700
     53 H323        -0.6480    -4.9150    -2.2190 h1         1 380       0.041700
     54 H16          0.3340    -0.2850    -2.5350 ha         1 380       0.127000
     55 H18          0.3150    -2.7400    -2.5110 ha         1 380       0.124000
     56 H6           1.9110     1.2040     1.5990 ha         1 380       0.114500
     57 H7           4.1340     0.5590     2.4240 ha         1 380       0.122000
@<TRIPOS>BOND
     1     1     2 1   
     2     1     3 2   
     3     1     4 1   
     4     2    32 1   
     5     2    33 1   
     6     3    34 1   
     7     4     5 ar  
     8     4    31 ar  
     9     5     6 ar  
    10     5    35 1   
    11     6     7 ar  
    12     6    36 1   
    13     7     8 1   
    14     7    30 ar  
    15     8     9 1   
    16     8    37 1   
    17     9    10 1   
    18     9    20 1   
    19     9    38 1   
    20    10    11 1   
    21    10    19 2   
    22    11    12 1   
    23    11    39 1   
    24    12    13 1   
    25    12    40 1   
    26    12    41 1   
    27    13    14 ar  
    28    13    18 ar  
    29    14    15 ar  
    30    14    42 1   
    31    15    16 ar  
    32    15    43 1   
    33    16    17 ar  
    34    16    44 1   
    35    17    18 ar  
    36    17    45 1   
    37    18    46 1   
    38    20    21 ar  
    39    20    28 ar  
    40    21    22 ar  
    41    21    47 1   
    42    22    23 1   
    43    22    25 ar  
    44    23    24 1   
    45    24    48 1   
    46    24    49 1   
    47    24    50 1   
    48    25    26 1   
    49    25    29 ar  
    50    26    27 1   
    51    27    51 1   
    52    27    52 1   
    53    27    53 1   
    54    28    29 ar  
    55    28    54 1   
    56    29    55 1   
    57    30    31 ar  
    58    30    56 1   
    59    31    57 1   
@<TRIPOS>SUBSTRUCTURE
     1 380         1 TEMP              0 ****  ****    0 ROOT
