@<TRIPOS>MOLECULE
380
   57    59     1     0     0
SMALL
abcg2


@<TRIPOS>ATOM
      1 C1           6.7270     0.3950     0.4260 ce         1 380       0.668800
      2 N1           6.8730    -0.5010     1.4510 nv         1 380      -1.072200
      3 N2           7.6860     0.9460    -0.2180 n2         1 380      -0.835100
      4 C2           5.3310     0.7700     0.0980 ca         1 380      -0.203900
      5 C3           5.0400     1.3470    -1.1410 ca         1 380      -0.032000
      6 C4           3.7550     1.7060    -1.4840 ca         1 380      -0.198000
      7 C5           2.6890     1.5140    -0.5890 ca         1 380       0.345000
      8 N3           1.4320     1.9140    -0.9460 nu         1 380      -0.957200
      9 C11          0.2620     1.5700    -0.2000 c3         1 380       0.207800
     10 C22         -0.9520     2.2040    -0.8870 c          1 380       0.601100
     11 N24         -1.9950     2.4270    -0.0750 ns         1 380      -0.492900
     12 C25         -3.3480     2.6520    -0.5310 c3         1 380       0.143300
     13 C26         -4.2480     1.4790    -0.2180 ca         1 380      -0.120300
     14 C27         -5.5220     1.6940     0.2960 ca         1 380      -0.101000
     15 C28         -6.3630     0.6250     0.5830 ca         1 380      -0.110000
     16 C29         -5.9320    -0.6760     0.3670 ca         1 380      -0.106000
     17 C30         -4.6590    -0.9000    -0.1420 ca         1 380      -0.110000
     18 C31         -3.8250     0.1690    -0.4380 ca         1 380      -0.101000
     19 O23         -0.9600     2.4030    -2.0910 o          1 380      -0.599100
     20 C12         -0.0510     0.0830    -0.1370 ca         1 380      -0.131300
     21 C17         -0.6650    -0.4390     1.0030 ca         1 380      -0.167000
     22 C19         -1.0980    -1.7530     1.0410 ca         1 380       0.113100
     23 O2          -1.7230    -2.3280     2.0830 os         1 380      -0.319100
     24 C24         -2.0910    -1.5050     3.1710 c3         1 380       0.143900
     25 C20         -0.8940    -2.5820    -0.0820 ca         1 380       0.117100
     26 O3          -1.3440    -3.8440     0.0370 os         1 380      -0.321100
     27 C32         -1.1810    -4.7150    -1.0630 c3         1 380       0.143900
     28 C16          0.1490    -0.7330    -1.2320 ca         1 380      -0.077000
     29 C18         -0.2620    -2.0640    -1.2000 ca         1 380      -0.171000
     30 C6           2.9750     0.9440     0.6580 ca         1 380      -0.198000
     31 C7           4.2730     0.5850     0.9850 ca         1 380      -0.032000
     32 H1N1         6.1330    -1.1660     1.6070 hn         1 380       0.455000
     33 H1N2         7.7900    -0.8990     1.5790 hn         1 380       0.455000
     34 HN2          8.5850     0.5750     0.0750 hn         1 380       0.367400
     35 H3           5.8410     1.5060    -1.8510 ha         1 380       0.122000
     36 H4           3.5600     2.1430    -2.4570 ha         1 380       0.114500
     37 HA           1.2800     2.1430    -1.9160 hn         1 380       0.505000
     38 H11          0.3450     1.9570     0.8230 h1         1 380       0.070700
     39 H24         -1.8810     2.2400     0.9090 hn         1 380       0.312500
     40 H251        -3.7440     3.5580    -0.0680 h1         1 380       0.069200
     41 H252        -3.3170     2.8370    -1.6050 h1         1 380       0.069200
     42 H27         -5.8610     2.7070     0.4830 ha         1 380       0.116000
     43 H28         -7.3500     0.8120     0.9850 ha         1 380       0.116500
     44 H29         -6.5810    -1.5110     0.5970 ha         1 380       0.114000
     45 H30         -4.3100    -1.9110    -0.3090 ha         1 380       0.116500
     46 H31         -2.8360    -0.0310    -0.8320 ha         1 380       0.116000
     47 H17         -0.8080     0.2070     1.8610 ha         1 380       0.113000
     48 H241        -2.6440    -2.1360     3.8630 h1         1 380       0.041033
     49 H242        -1.2200    -1.0950     3.6890 h1         1 380       0.041033
     50 H243        -2.7350    -0.6800     2.8540 h1         1 380       0.041033
     51 H321        -0.1280    -4.8630    -1.3160 h1         1 380       0.041700
     52 H322        -1.6090    -5.6690    -0.7680 h1         1 380       0.041700
     53 H323        -1.7070    -4.3530    -1.9520 h1         1 380       0.041700
     54 H16          0.6190    -0.3500    -2.1280 ha         1 380       0.127000
     55 H18         -0.0930    -2.6830    -2.0710 ha         1 380       0.124000
     56 H6           2.1930     0.7800     1.3860 ha         1 380       0.114500
     57 H7           4.4460     0.1670     1.9690 ha         1 380       0.122000
@<TRIPOS>BOND
     1     1     2 1   
     2     1     3 2   
     3     1     4 1   
     4     2    32 1   
     5     2    33 1   
     6     3    34 1   
     7     4     5 ar  
     8     4    31 ar  
     9     5     6 ar  
    10     5    35 1   
    11     6     7 ar  
    12     6    36 1   
    13     7     8 1   
    14     7    30 ar  
    15     8     9 1   
    16     8    37 1   
    17     9    10 1   
    18     9    20 1   
    19     9    38 1   
    20    10    11 1   
    21    10    19 2   
    22    11    12 1   
    23    11    39 1   
    24    12    13 1   
    25    12    40 1   
    26    12    41 1   
    27    13    14 ar  
    28    13    18 ar  
    29    14    15 ar  
    30    14    42 1   
    31    15    16 ar  
    32    15    43 1   
    33    16    17 ar  
    34    16    44 1   
    35    17    18 ar  
    36    17    45 1   
    37    18    46 1   
    38    20    21 ar  
    39    20    28 ar  
    40    21    22 ar  
    41    21    47 1   
    42    22    23 1   
    43    22    25 ar  
    44    23    24 1   
    45    24    48 1   
    46    24    49 1   
    47    24    50 1   
    48    25    26 1   
    49    25    29 ar  
    50    26    27 1   
    51    27    51 1   
    52    27    52 1   
    53    27    53 1   
    54    28    29 ar  
    55    28    54 1   
    56    29    55 1   
    57    30    31 ar  
    58    30    56 1   
    59    31    57 1   
@<TRIPOS>SUBSTRUCTURE
     1 380         1 TEMP              0 ****  ****    0 ROOT
