@<TRIPOS>MOLECULE
382
   55    59     1     0     0
SMALL
No Charge or Current Charge


@<TRIPOS>ATOM
      1 C1           8.0520     0.2070     0.1410 c6         1 382      -0.077400
      2 C2           7.2080     0.8690     1.2550 c6         1 382       0.160800
      3 N3           5.7860     0.9910     0.8550 n7         1 382      -0.849400
      4 C4           5.1540    -0.3190     0.5020 c6         1 382       0.132500
      5 C5           5.9640    -1.0150    -0.6350 c6         1 382      -0.071400
      6 C6           7.4580    -1.1640    -0.2580 c6         1 382      -0.075400
      7 C15          3.6270    -0.1620     0.1400 c3         1 382       0.161000
      8 F17          3.1090    -1.3740    -0.1820 f          1 382      -0.112000
      9 F18          3.4800     0.6150    -0.9630 f          1 382      -0.112000
     10 C19          2.7790     0.4370     1.3070 c3         1 382       0.182800
     11 N20          1.3120     0.4270     1.0570 nu         1 382      -0.923100
     12 C23          0.6300     1.2690     0.2080 ca         1 382       0.696900
     13 C24         -0.4910     0.8150    -0.5210 ca         1 382      -0.077600
     14 C25         -1.1140     1.7140    -1.3360 ca         1 382       0.104100
     15 C26         -0.6840     3.0320    -1.4600 ca         1 382      -0.207000
     16 C27          0.4390     3.3950    -0.6920 ca         1 382       0.408900
     17 N28          1.0910     2.5320     0.1340 nb         1 382      -0.769000
     18 N31         -1.1210    -0.4470    -0.5640 nc         1 382      -0.555100
     19 C32         -2.1140    -0.1940    -1.4440 cd         1 382       0.513600
     20 O33         -2.1400     1.0880    -1.9260 os         1 382      -0.268700
     21 C34         -3.1910    -1.1720    -1.8280 c3         1 382      -0.036400
     22 C36         -3.8340    -1.9180    -0.6510 ca         1 382      -0.061300
     23 C39         -3.7990    -3.3290    -0.6340 ca         1 382      -0.090000
     24 C40         -4.3690    -4.0470     0.4300 ca         1 382      -0.101000
     25 C41         -4.9800    -3.3630     1.4910 ca         1 382      -0.095000
     26 C42         -5.0220    -1.9600     1.4880 ca         1 382      -0.110000
     27 C43         -4.4560    -1.2290     0.4240 ca         1 382       0.018800
     28 N48         -4.5100     0.1660     0.4680 na         1 382       0.026500
     29 N49         -5.3290     0.8710    -0.3420 nc         1 382      -0.532800
     30 C50         -5.0850     2.1090     0.0780 cd         1 382       0.523900
     31 N51         -4.1690     2.1940     1.1260 nd         1 382      -0.699000
     32 C52         -3.8220     0.9390     1.3630 cc         1 382       0.429400
     33 H11          9.0890     0.0840     0.4820 hc         1 382       0.050200
     34 H12          8.0850     0.8680    -0.7370 hc         1 382       0.050200
     35 H21          7.2790     0.2690     2.1740 h1         1 382       0.030700
     36 H22          7.6120     1.8680     1.4780 h1         1 382       0.030700
     37 HN3          5.2710     1.4230     1.6310 hn         1 382       0.409000
     38 H4           5.2050    -0.9660     1.3910 h1         1 382       0.030700
     39 H51          5.5450    -2.0070    -0.8490 hc         1 382       0.061700
     40 H52A         5.8790    -0.4340    -1.5640 hc         1 382       0.061700
     41 H61          7.5610    -1.8700     0.5790 hc         1 382       0.040700
     42 H62          8.0210    -1.5890    -1.1000 hc         1 382       0.040700
     43 H191         2.9930    -0.1540     2.2090 h1         1 382       0.076200
     44 H192         3.1210     1.4600     1.5160 h1         1 382       0.076200
     45 H20          0.8650    -0.4890     1.0600 hn         1 382       0.519000
     46 H26         -1.1840     3.7440    -2.1090 ha         1 382       0.151000
     47 H27          0.8320     4.4110    -0.7360 h4         1 382       0.023100
     48 H341        -3.9700    -0.6410    -2.3850 hc         1 382       0.091700
     49 H342        -2.7610    -1.8820    -2.5420 hc         1 382       0.091700
     50 H39         -3.3270    -3.8750    -1.4470 ha         1 382       0.125000
     51 H40         -4.3360    -5.1340     0.4310 ha         1 382       0.122000
     52 H41         -5.4220    -3.9200     2.3160 ha         1 382       0.123000
     53 H42         -5.5000    -1.4380     2.3140 ha         1 382       0.128000
     54 H50         -5.5560     2.9920    -0.3400 h5         1 382       0.065100
     55 H52         -3.1300     0.5530     2.1020 h5         1 382       0.067100
@<TRIPOS>BOND
     1     1     2 1   
     2     1     6 1   
     3     1    33 1   
     4     1    34 1   
     5     2     3 1   
     6     2    35 1   
     7     2    36 1   
     8     3     4 1   
     9     3    37 1   
    10     4     5 1   
    11     4     7 1   
    12     4    38 1   
    13     5     6 1   
    14     5    39 1   
    15     5    40 1   
    16     6    41 1   
    17     6    42 1   
    18     7     8 1   
    19     7     9 1   
    20     7    10 1   
    21    10    11 1   
    22    10    43 1   
    23    10    44 1   
    24    11    12 1   
    25    11    45 1   
    26    12    13 ar  
    27    12    17 ar  
    28    13    14 ar  
    29    13    18 1   
    30    14    15 ar  
    31    14    20 1   
    32    15    16 ar  
    33    15    46 1   
    34    16    17 ar  
    35    16    47 1   
    36    18    19 2   
    37    19    20 1   
    38    19    21 1   
    39    21    22 1   
    40    21    48 1   
    41    21    49 1   
    42    22    23 ar  
    43    22    27 ar  
    44    23    24 ar  
    45    23    50 1   
    46    24    25 ar  
    47    24    51 1   
    48    25    26 ar  
    49    25    52 1   
    50    26    27 ar  
    51    26    53 1   
    52    27    28 1   
    53    28    29 1   
    54    28    32 1   
    55    29    30 2   
    56    30    31 1   
    57    30    54 1   
    58    31    32 2   
    59    32    55 1   
@<TRIPOS>SUBSTRUCTURE
     1 382         1 TEMP              0 ****  ****    0 ROOT
