@<TRIPOS>MOLECULE
382
   55    59     1     0     0
SMALL
bcc


@<TRIPOS>ATOM
      1 C1           8.2560     0.8950     0.3170 c6         1 382      -0.077400
      2 C2           7.2190     0.9530     1.4240 c6         1 382       0.160800
      3 N3           5.8750     0.8520     0.8730 n7         1 382      -0.794200
      4 C4           5.6570    -0.4000     0.1660 c6         1 382       0.132500
      5 C5           6.6520    -0.5170    -0.9900 c6         1 382      -0.071400
      6 C6           8.0850    -0.3870    -0.4850 c6         1 382      -0.075400
      7 C15          4.2120    -0.4670    -0.3180 c3         1 382       0.403600
      8 F17          4.0460    -1.6270    -1.0310 f          1 382      -0.233300
      9 F18          3.9560     0.5370    -1.2050 f          1 382      -0.233300
     10 C19          3.1620    -0.4420     0.7840 c3         1 382       0.182800
     11 N20          1.8290    -0.5890     0.2790 nu         1 382      -0.867900
     12 C23          0.9760     0.4390     0.0750 ca         1 382       0.762200
     13 C24         -0.3310     0.2050    -0.3920 ca         1 382      -0.142900
     14 C25         -1.1760     1.2780    -0.5650 ca         1 382       0.104100
     15 C26         -0.8040     2.5890    -0.3000 ca         1 382      -0.290300
     16 C27          0.4960     2.6980     0.1550 ca         1 382       0.474200
     17 N28          1.3510     1.6840     0.3360 nb         1 382      -0.769000
     18 N31         -0.9990    -0.9570    -0.7290 nc         1 382      -0.555100
     19 C32         -2.1680    -0.5610    -1.0790 cd         1 382       0.513600
     20 O33         -2.3490     0.7840    -1.0090 os         1 382      -0.268700
     21 C34         -3.3290    -1.3940    -1.4920 c3         1 382      -0.036400
     22 C36         -4.1680    -1.8030    -0.3030 ca         1 382      -0.061300
     23 C39         -4.0850    -3.1080     0.1710 ca         1 382      -0.108000
     24 C40         -4.7930    -3.5190     1.2910 ca         1 382      -0.119000
     25 C41         -5.6080    -2.6210     1.9630 ca         1 382      -0.113000
     26 C42         -5.7200    -1.3190     1.4990 ca         1 382      -0.128000
     27 C43         -5.0040    -0.9180     0.3800 ca         1 382       0.018800
     28 N48         -5.1250     0.4300    -0.0350 na         1 382       0.026500
     29 N49         -5.5280     0.7700    -1.2670 nc         1 382      -0.532800
     30 C50         -5.4970     2.0790    -1.2320 cd         1 382       0.523900
     31 N51         -5.1020     2.6010    -0.0500 nd         1 382      -0.699000
     32 C52         -4.8730     1.5360     0.6790 cc         1 382       0.429400
     33 H11          9.2580     0.9540     0.7480 hc         1 382       0.050200
     34 H12          8.1360     1.7620    -0.3390 hc         1 382       0.050200
     35 H21          7.4280     0.1490     2.1490 h1         1 382       0.030700
     36 H22          7.2900     1.8960     1.9690 h1         1 382       0.030700
     37 HN3          5.2250     0.9340     1.6440 hn         1 382       0.353800
     38 H4           5.8000    -1.2740     0.8270 h1         1 382       0.030700
     39 H51          6.5240    -1.4720    -1.5010 hc         1 382       0.061700
     40 H52A         6.4580     0.2740    -1.7200 hc         1 382       0.061700
     41 H61          8.3300    -1.2470     0.1470 hc         1 382       0.040700
     42 H62          8.7770    -0.4130    -1.3290 hc         1 382       0.040700
     43 H191         3.3740    -1.2510     1.4850 h1         1 382       0.076200
     44 H192         3.2210     0.4950     1.3360 h1         1 382       0.076200
     45 H20          1.4970    -1.5170     0.0740 hn         1 382       0.463800
     46 H26         -1.4510     3.4440    -0.4290 ha         1 382       0.169000
     47 H27          0.8870     3.6800     0.3960 h4         1 382       0.023100
     48 H341        -3.9220    -0.8620    -2.2360 hc         1 382       0.091700
     49 H342        -2.9340    -2.2910    -1.9680 hc         1 382       0.091700
     50 H39         -3.4420    -3.8110    -0.3430 ha         1 382       0.143000
     51 H40         -4.7040    -4.5400     1.6370 ha         1 382       0.140000
     52 H41         -6.1650    -2.9310     2.8360 ha         1 382       0.141000
     53 H42         -6.3730    -0.6160     1.9980 ha         1 382       0.146000
     54 H50         -5.7770     2.6790    -2.0850 h5         1 382       0.065100
     55 H52         -4.5230     1.5100     1.6990 h5         1 382       0.067100
@<TRIPOS>BOND
     1     1     2 1   
     2     1     6 1   
     3     1    33 1   
     4     1    34 1   
     5     2     3 1   
     6     2    35 1   
     7     2    36 1   
     8     3     4 1   
     9     3    37 1   
    10     4     5 1   
    11     4     7 1   
    12     4    38 1   
    13     5     6 1   
    14     5    39 1   
    15     5    40 1   
    16     6    41 1   
    17     6    42 1   
    18     7     8 1   
    19     7     9 1   
    20     7    10 1   
    21    10    11 1   
    22    10    43 1   
    23    10    44 1   
    24    11    12 1   
    25    11    45 1   
    26    12    13 ar  
    27    12    17 ar  
    28    13    14 ar  
    29    13    18 1   
    30    14    15 ar  
    31    14    20 1   
    32    15    16 ar  
    33    15    46 1   
    34    16    17 ar  
    35    16    47 1   
    36    18    19 2   
    37    19    20 1   
    38    19    21 1   
    39    21    22 1   
    40    21    48 1   
    41    21    49 1   
    42    22    23 ar  
    43    22    27 ar  
    44    23    24 ar  
    45    23    50 1   
    46    24    25 ar  
    47    24    51 1   
    48    25    26 ar  
    49    25    52 1   
    50    26    27 ar  
    51    26    53 1   
    52    27    28 1   
    53    28    29 1   
    54    28    32 1   
    55    29    30 2   
    56    30    31 1   
    57    30    54 1   
    58    31    32 2   
    59    32    55 1   
@<TRIPOS>SUBSTRUCTURE
     1 382         1 TEMP              0 ****  ****    0 ROOT
