@<TRIPOS>MOLECULE
383
   51    53     1     0     0
SMALL
abcg2


@<TRIPOS>ATOM
      1 C8           0.5610     0.3800    -5.3620 ca         1 383      -0.075500
      2 C7          -0.1270     0.0380    -6.5190 ca         1 383      -0.176500
      3 C12         -1.0270    -1.0220    -6.5050 ca         1 383       0.119100
      4 C11         -1.2240    -1.7330    -5.3220 ca         1 383      -0.176500
      5 C10         -0.5270    -1.3780    -4.1790 ca         1 383      -0.075500
      6 C9           0.3800    -0.3190    -4.1720 ca         1 383      -0.096300
      7 C14          1.0880     0.0830    -2.9120 c3         1 383      -0.076100
      8 C15          0.2280     1.0320    -2.0460 c3         1 383       0.081500
      9 C17          1.0060     1.3190    -0.7700 c          1 383       0.617100
     10 N19          0.6570     0.5790     0.2870 ns         1 383      -0.452900
     11 C20          1.4680     0.4580     1.4680 c3         1 383      -0.030300
     12 C21          2.7200    -0.4440     1.2650 c          1 383       0.726000
     13 O23          2.9400    -0.8770     0.1250 o          1 383      -0.718000
     14 O18          1.8980     2.1580    -0.7510 o          1 383      -0.632100
     15 N16         -0.1290     2.2860    -2.6770 n8         1 383      -0.988200
     16 O22          3.4190    -0.5980     2.2870 o          1 383      -0.718000
     17 C6           0.5840     0.0160     2.6360 c6         1 383       0.116500
     18 N5          -0.1530    -1.1940     2.2750 n3         1 383      -0.480100
     19 C4          -1.2340    -1.5070     3.1650 c5         1 383       0.318500
     20 C3          -2.2740    -0.3930     3.0940 c5         1 383       0.114300
     21 C2          -1.5270     0.6570     3.9130 c5         1 383       0.153000
     22 C1          -0.3540     1.1660     3.0740 c6         1 383       0.185300
     23 O28          0.7170    -2.2770     2.1560 oh         1 383      -0.409300
     24 O29         -2.2800     1.7670     4.3020 oh         1 383      -0.674000
     25 C30         -1.0460    -0.2190     5.0800 c5         1 383       0.120600
     26 O31         -0.8520    -1.5210     4.5330 os         1 383      -0.481000
     27 O32         -2.6080     0.0640     1.8220 oh         1 383      -0.679000
     28 O64          0.3750     2.0860     3.8500 oh         1 383      -0.721000
     29 O13         -1.7260    -1.4030    -7.5950 oh         1 383      -0.543100
     30 H8           1.2620     1.2060    -5.3960 ha         1 383       0.117500
     31 H7           0.0430     0.6000    -7.4310 ha         1 383       0.111500
     32 H11         -1.9200    -2.5630    -5.3030 ha         1 383       0.111500
     33 H10         -0.6930    -1.9440    -3.2690 ha         1 383       0.117500
     34 H141         2.0250     0.5920    -3.1550 hc         1 383       0.084700
     35 H142         1.3520    -0.7980    -2.3220 hc         1 383       0.084700
     36 H15         -0.7000     0.5080    -1.7940 h1         1 383       0.055700
     37 H19         -0.0670    -0.1160     0.1770 hn         1 383       0.315500
     38 H20          1.8630     1.4490     1.7160 h1         1 383       0.059700
     39 H161         0.7150     2.7850    -2.9320 hn         1 383       0.394000
     40 H162        -0.6160     2.0980    -3.5450 hn         1 383       0.394000
     41 H6           1.2460    -0.1810     3.4910 h1         1 383       0.085700
     42 H4          -1.6160    -2.4950     2.9050 h2         1 383       0.095700
     43 H3          -3.1650    -0.7220     3.6520 h1         1 383       0.027700
     44 H1          -0.7630     1.6580     2.1840 h1         1 383       0.078700
     45 H28          1.2120    -2.3510     2.9880 ho         1 383       0.436000
     46 H29         -3.0660     1.4630     4.7700 ho         1 383       0.491000
     47 H301        -0.1200     0.1410     5.5370 h1         1 383       0.055700
     48 H302        -1.8110    -0.2580     5.8640 h1         1 383       0.055700
     49 H32         -2.9970    -0.6610     1.3230 ho         1 383       0.506000
     50 H64          0.8250     2.7000     3.2640 ho         1 383       0.519000
     51 H13         -1.5080    -0.8380    -8.3450 ho         1 383       0.456000
@<TRIPOS>BOND
     1     1     2 ar  
     2     1     6 ar  
     3     1    30 1   
     4     2     3 ar  
     5     2    31 1   
     6     3     4 ar  
     7     3    29 1   
     8     4     5 ar  
     9     4    32 1   
    10     5     6 ar  
    11     5    33 1   
    12     6     7 1   
    13     7     8 1   
    14     7    34 1   
    15     7    35 1   
    16     8     9 1   
    17     8    15 1   
    18     8    36 1   
    19     9    10 1   
    20     9    14 2   
    21    10    11 1   
    22    10    37 1   
    23    11    12 1   
    24    11    17 1   
    25    11    38 1   
    26    12    13 1   
    27    12    16 1   
    28    15    39 1   
    29    15    40 1   
    30    17    18 1   
    31    17    22 1   
    32    17    41 1   
    33    18    19 1   
    34    18    23 1   
    35    19    20 1   
    36    19    26 1   
    37    19    42 1   
    38    20    21 1   
    39    20    27 1   
    40    20    43 1   
    41    21    22 1   
    42    21    24 1   
    43    21    25 1   
    44    22    28 1   
    45    22    44 1   
    46    23    45 1   
    47    24    46 1   
    48    25    26 1   
    49    25    47 1   
    50    25    48 1   
    51    27    49 1   
    52    28    50 1   
    53    29    51 1   
@<TRIPOS>SUBSTRUCTURE
     1 383         1 TEMP              0 ****  ****    0 ROOT
