@<TRIPOS>MOLECULE
383
   51    53     1     0     0
SMALL
No Charge or Current Charge


@<TRIPOS>ATOM
      1 C8          -0.1900     1.0400    -5.4470 ca         1 383      -0.075500
      2 C7          -0.6870     0.5830    -6.6810 ca         1 383      -0.176500
      3 C12         -0.6280    -0.7830    -6.9990 ca         1 383       0.119100
      4 C11         -0.0740    -1.6920    -6.0860 ca         1 383      -0.176500
      5 C10          0.4230    -1.2380    -4.8520 ca         1 383      -0.075500
      6 C9           0.3650     0.1310    -4.5240 ca         1 383      -0.096300
      7 C14          0.9090     0.6230    -3.1830 c3         1 383      -0.076100
      8 C15          0.0610     0.1720    -1.9660 c3         1 383       0.081500
      9 C17          0.7340     0.6140    -0.6130 c          1 383       0.617100
     10 N19          1.0780    -0.4210     0.2310 ns         1 383      -0.452900
     11 C20          1.6970    -0.2860     1.5790 c3         1 383      -0.030300
     12 C21          2.7980    -1.3700     1.8130 c          1 383       0.726000
     13 O23          2.9800    -2.2320     0.9600 o          1 383      -0.718000
     14 O18          0.9380     1.7880    -0.3240 o          1 383      -0.632100
     15 N16         -1.3690     0.5950    -2.1460 n8         1 383      -0.988200
     16 O22          3.5020    -1.2670     2.8080 o          1 383      -0.718000
     17 C6           0.6360    -0.2440     2.7360 c6         1 383       0.116500
     18 N5          -0.5090    -1.2060     2.5400 n3         1 383      -0.480100
     19 C4          -1.6650    -1.0860     3.4960 c5         1 383       0.318500
     20 C3          -2.3170     0.3220     3.2760 c5         1 383       0.114300
     21 C2          -1.1740     1.1920     3.8860 c5         1 383       0.153000
     22 C1           0.1100     1.2100     2.9860 c6         1 383       0.185300
     23 O28          0.0420    -2.5720     2.6510 oh         1 383      -0.409300
     24 O29         -1.6010     2.5480     4.1110 oh         1 383      -0.674000
     25 C30         -0.9930     0.3770     5.2130 c5         1 383       0.120600
     26 O31         -1.0820    -1.0250     4.8220 os         1 383      -0.481000
     27 O32         -2.6310     0.6440     1.9080 oh         1 383      -0.679000
     28 O64          1.1180     2.0420     3.5980 oh         1 383      -0.721000
     29 O13         -1.1070    -1.2310    -8.1930 oh         1 383      -0.543100
     30 H8          -0.2380     2.1010    -5.2100 ha         1 383       0.117500
     31 H7          -1.1130     1.2950    -7.3840 ha         1 383       0.111500
     32 H11         -0.0270    -2.7500    -6.3330 ha         1 383       0.111500
     33 H10          0.8540    -1.9510    -4.1510 ha         1 383       0.117500
     34 H141         0.9890     1.7180    -3.1790 hc         1 383       0.084700
     35 H142         1.9330     0.2530    -3.0510 hc         1 383       0.084700
     36 H15          0.0620    -0.9270    -1.9680 h1         1 383       0.055700
     37 H19          0.8710    -1.3600    -0.0900 hn         1 383       0.315500
     38 H20          2.2470     0.6630     1.6010 h1         1 383       0.059700
     39 H161        -1.4200     1.6200    -2.1100 hn         1 383       0.394000
     40 H162        -1.6530     0.3740    -3.1080 hn         1 383       0.394000
     41 H6           1.1710    -0.5180     3.6580 h1         1 383       0.085700
     42 H4          -2.3880    -1.9070     3.3950 h2         1 383       0.095700
     43 H3          -3.2280     0.4050     3.8850 h1         1 383       0.027700
     44 H1          -0.1780     1.6370     2.0140 h1         1 383       0.078700
     45 H28          0.2140    -2.6870     3.6150 ho         1 383       0.436000
     46 H29         -2.2820     2.7370     3.4240 ho         1 383       0.491000
     47 H301        -0.0290     0.5650     5.7030 h1         1 383       0.055700
     48 H302        -1.7960     0.5940     5.9300 h1         1 383       0.055700
     49 H32         -2.0570     0.0630     1.3550 ho         1 383       0.506000
     50 H64          0.6090     2.7850     4.0020 ho         1 383       0.519000
     51 H13         -1.4520    -0.4620    -8.6960 ho         1 383       0.456000
@<TRIPOS>BOND
     1     1     2 ar  
     2     1     6 ar  
     3     1    30 1   
     4     2     3 ar  
     5     2    31 1   
     6     3     4 ar  
     7     3    29 1   
     8     4     5 ar  
     9     4    32 1   
    10     5     6 ar  
    11     5    33 1   
    12     6     7 1   
    13     7     8 1   
    14     7    34 1   
    15     7    35 1   
    16     8     9 1   
    17     8    15 1   
    18     8    36 1   
    19     9    10 1   
    20     9    14 2   
    21    10    11 1   
    22    10    37 1   
    23    11    12 1   
    24    11    17 1   
    25    11    38 1   
    26    12    13 1   
    27    12    16 1   
    28    15    39 1   
    29    15    40 1   
    30    17    18 1   
    31    17    22 1   
    32    17    41 1   
    33    18    19 1   
    34    18    23 1   
    35    19    20 1   
    36    19    26 1   
    37    19    42 1   
    38    20    21 1   
    39    20    27 1   
    40    20    43 1   
    41    21    22 1   
    42    21    24 1   
    43    21    25 1   
    44    22    28 1   
    45    22    44 1   
    46    23    45 1   
    47    24    46 1   
    48    25    26 1   
    49    25    47 1   
    50    25    48 1   
    51    27    49 1   
    52    28    50 1   
    53    29    51 1   
@<TRIPOS>SUBSTRUCTURE
     1 383         1 TEMP              0 ****  ****    0 ROOT
