@<TRIPOS>MOLECULE
384
   59    61     1     0     0
SMALL
No Charge or Current Charge


@<TRIPOS>ATOM
      1 CBA         -5.7210     2.9050    -1.6840 c3         1 384       0.144900
      2 OAZ         -4.9730     2.5500    -0.5090 os         1 384      -0.453000
      3 CAY         -3.5740     2.9010    -0.5610 c3         1 384       0.156600
      4 CAX         -2.9000     2.4950     0.7700 c3         1 384       0.155600
      5 OAW         -2.7810     1.0560     0.8100 os         1 384      -0.436000
      6 CAF         -2.2490     0.4850     2.0270 c3         1 384       0.146300
      7 CAA         -2.5960    -1.0280     2.0400 c3         1 384       0.119000
      8 NAB         -2.1760    -1.8220     0.8520 n          1 384      -0.393800
      9 CBB         -3.2540    -2.5300     0.1050 c3         1 384       0.099000
     10 CBC         -4.0300    -1.6460    -0.9000 c3         1 384       0.135600
     11 OBD         -3.1970    -1.4070    -2.0490 os         1 384      -0.432000
     12 CBE         -3.7600    -0.5050    -3.0140 c3         1 384       0.151900
     13 C           -0.8160    -1.9500     0.4530 c          1 384       0.567000
     14 O           -0.5300    -2.5310    -0.5880 o          1 384      -0.529000
     15 CA           0.3260    -1.2410     1.2690 c6         1 384       0.159500
     16 CB           0.5020    -1.7900     2.7240 c6         1 384      -0.077400
     17 CAH          0.7960    -0.6770     3.7590 c6         1 384      -0.066400
     18 CAI         -0.2810     0.4380     3.7110 c6         1 384      -0.084400
     19 CAE         -0.7210     0.8330     2.2600 c6         1 384       0.221500
     20 N            0.2530     0.2640     1.2780 n3         1 384      -0.780500
     21 SAK          0.5010     1.0890    -0.1960 sy         1 384       1.206600
     22 OAL         -0.5820     0.7410    -1.1190 o          1 384      -0.529000
     23 OAM          0.7970     2.4770     0.1730 o          1 384      -0.529000
     24 CAN          2.0470     0.3640    -0.7570 ca         1 384      -0.267500
     25 CAS          2.0670    -0.5220    -1.8560 ca         1 384      -0.012000
     26 CAR          3.2800    -1.1010    -2.2680 ca         1 384       0.101500
     27 Cl1          3.3040    -2.2070    -3.6360 cl         1 384      -0.182000
     28 CAQ          4.4730    -0.8030    -1.5880 ca         1 384      -0.054000
     29 CAP          4.4540     0.0750    -0.4920 ca         1 384       0.101500
     30 Cl2          5.9470     0.4400     0.3650 cl         1 384      -0.182000
     31 CAO          3.2460     0.6580    -0.0730 ca         1 384      -0.012000
     32 H1          -5.3110     2.4110    -2.5740 h1         1 384       0.028700
     33 H2          -6.7690     2.5990    -1.5750 h1         1 384       0.028700
     34 H3          -5.6970     3.9910    -1.8480 h1         1 384       0.028700
     35 H4          -3.0690     2.3980    -1.3960 h1         1 384       0.039200
     36 H5          -3.4580     3.9850    -0.6970 h1         1 384       0.039200
     37 H6          -1.9130     2.9710     0.8160 h1         1 384       0.035700
     38 H7          -3.4990     2.8660     1.6110 h1         1 384       0.035700
     39 H8          -2.7910     0.9240     2.8760 h1         1 384       0.041700
     40 H9          -2.2270    -1.4930     2.9580 h1         1 384       0.050200
     41 H10         -3.6900    -1.0890     2.1140 h1         1 384       0.050200
     42 H11         -2.8430    -3.4000    -0.4230 h1         1 384       0.060700
     43 H12         -3.9730    -2.9250     0.8340 h1         1 384       0.060700
     44 H13         -4.9450    -2.1720    -1.2020 h1         1 384       0.033700
     45 H14         -4.3220    -0.7050    -0.4170 h1         1 384       0.033700
     46 H15         -3.9380     0.4800    -2.5660 h1         1 384       0.025033
     47 H16         -3.0740    -0.3760    -3.8610 h1         1 384       0.025033
     48 H17         -4.7130    -0.8900    -3.3990 h1         1 384       0.025033
     49 H18          1.2440    -1.5370     0.7430 h1         1 384       0.081700
     50 H19         -0.3610    -2.3860     3.0400 hc         1 384       0.054200
     51 H20          1.3380    -2.5040     2.7280 hc         1 384       0.054200
     52 H21          0.8600    -1.1010     4.7700 hc         1 384       0.048700
     53 H22          1.7820    -0.2400     3.5450 hc         1 384       0.048700
     54 H23         -1.1480     0.1310     4.3110 hc         1 384       0.046200
     55 H24          0.1170     1.3270     4.2190 hc         1 384       0.046200
     56 H25         -0.6510     1.9300     2.2370 h1         1 384       0.076700
     57 H26          1.1510    -0.7720    -2.3890 ha         1 384       0.154000
     58 H27          5.4090    -1.2530    -1.9090 ha         1 384       0.146000
     59 H28          3.2420     1.3280     0.7850 ha         1 384       0.154000
@<TRIPOS>BOND
     1     1     2 1   
     2     1    32 1   
     3     1    33 1   
     4     1    34 1   
     5     2     3 1   
     6     3     4 1   
     7     3    35 1   
     8     3    36 1   
     9     4     5 1   
    10     4    37 1   
    11     4    38 1   
    12     5     6 1   
    13     6     7 1   
    14     6    19 1   
    15     6    39 1   
    16     7     8 1   
    17     7    40 1   
    18     7    41 1   
    19     8     9 1   
    20     8    13 1   
    21     9    10 1   
    22     9    42 1   
    23     9    43 1   
    24    10    11 1   
    25    10    44 1   
    26    10    45 1   
    27    11    12 1   
    28    12    46 1   
    29    12    47 1   
    30    12    48 1   
    31    13    14 2   
    32    13    15 1   
    33    15    16 1   
    34    15    20 1   
    35    15    49 1   
    36    16    17 1   
    37    16    50 1   
    38    16    51 1   
    39    17    18 1   
    40    17    52 1   
    41    17    53 1   
    42    18    19 1   
    43    18    54 1   
    44    18    55 1   
    45    19    20 1   
    46    19    56 1   
    47    20    21 1   
    48    21    22 2   
    49    21    23 2   
    50    21    24 1   
    51    24    25 ar  
    52    24    31 ar  
    53    25    26 ar  
    54    25    57 1   
    55    26    27 1   
    56    26    28 ar  
    57    28    29 ar  
    58    28    58 1   
    59    29    30 1   
    60    29    31 ar  
    61    31    59 1   
@<TRIPOS>SUBSTRUCTURE
     1 384         1 TEMP              0 ****  ****    0 ROOT
