@<TRIPOS>MOLECULE
384
   59    61     1     0     0
SMALL
bcc


@<TRIPOS>ATOM
      1 CBA         -5.5220     2.9460    -1.5860 c3         1 384       0.121700
      2 OAZ         -4.8440     2.5570    -0.4200 os         1 384      -0.406600
      3 CAY         -3.5140     3.0070    -0.3950 c3         1 384       0.133400
      4 CAX         -2.8270     2.5090     0.8490 c3         1 384       0.132400
      5 OAW         -2.7070     1.1070     0.7920 os         1 384      -0.389600
      6 CAF         -2.0780     0.5340     1.9030 c3         1 384       0.123100
      7 CAA         -2.6200    -0.8780     2.0840 c3         1 384       0.119000
      8 NAB         -2.5750    -1.7950     0.9510 n          1 384      -0.460800
      9 CBB         -3.8570    -2.2820     0.4590 c3         1 384       0.099000
     10 CBC         -4.4340    -1.3960    -0.6260 c3         1 384       0.112400
     11 OBD         -3.5980    -1.4530    -1.7510 os         1 384      -0.385600
     12 CBE         -3.7770    -0.3800    -2.6320 c3         1 384       0.128700
     13 C           -1.4430    -2.3090     0.4200 c          1 384       0.709500
     14 O           -1.4320    -3.2640    -0.3420 o          1 384      -0.604500
     15 CA          -0.1110    -1.6730     0.8120 c6         1 384       0.159500
     16 CB           0.3870    -2.1000     2.2110 c6         1 384      -0.077400
     17 CAH          1.1230    -0.9580     2.8890 c6         1 384      -0.066400
     18 CAI          0.1840     0.2250     3.0840 c6         1 384      -0.084400
     19 CAE         -0.5540     0.6110     1.7840 c6         1 384       0.221500
     20 N           -0.1160    -0.2230     0.6730 n3         1 384      -0.780500
     21 SAK          0.3070     0.4000    -0.7770 sy         1 384       1.348200
     22 OAL         -0.2210    -0.4380    -1.8370 o          1 384      -0.599800
     23 OAM          0.0380     1.8260    -0.7690 o          1 384      -0.599800
     24 CAN          2.0800     0.2010    -0.7950 ca         1 384      -0.267500
     25 CAS          2.6480    -0.8300    -1.5230 ca         1 384      -0.030000
     26 CAR          4.0250    -0.9890    -1.4630 ca         1 384       0.009900
     27 CL1          4.7640    -2.2670    -2.3540 cl         1 384      -0.090400
     28 CAQ          4.8220    -0.1470    -0.7070 ca         1 384      -0.072000
     29 CAP          4.2130     0.8790     0.0040 ca         1 384       0.009900
     30 CL2          5.1940     1.9380     0.9480 cl         1 384      -0.090400
     31 CAO          2.8440     1.0710    -0.0290 ca         1 384      -0.030000
     32 H1          -5.0630     2.5250    -2.4890 h1         1 384       0.028700
     33 H2          -6.5460     2.5790    -1.5200 h1         1 384       0.028700
     34 H3          -5.5530     4.0360    -1.7020 h1         1 384       0.028700
     35 H4          -2.9590     2.6670    -1.2810 h1         1 384       0.039200
     36 H5          -3.4690     4.1060    -0.3930 h1         1 384       0.039200
     37 H6          -1.8500     3.0020     0.9090 h1         1 384       0.035700
     38 H7          -3.3940     2.8140     1.7390 h1         1 384       0.035700
     39 H8          -2.3550     1.0660     2.8270 h1         1 384       0.041700
     40 H9          -2.1470    -1.3300     2.9590 h1         1 384       0.050200
     41 H10         -3.6700    -0.7790     2.3530 h1         1 384       0.050200
     42 H11         -3.7420    -3.3000     0.0900 h1         1 384       0.060700
     43 H12         -4.5620    -2.3270     1.2900 h1         1 384       0.060700
     44 H13         -5.4490    -1.7470    -0.8670 h1         1 384       0.033700
     45 H14         -4.5280    -0.3660    -0.2600 h1         1 384       0.033700
     46 H15         -3.5740     0.5790    -2.1450 h1         1 384       0.025033
     47 H16         -3.0790    -0.5020    -3.4600 h1         1 384       0.025033
     48 H17         -4.7930    -0.3410    -3.0470 h1         1 384       0.025033
     49 H18          0.6080    -2.0750     0.0960 h1         1 384       0.081700
     50 H19         -0.4370    -2.4280     2.8480 hc         1 384       0.054200
     51 H20          1.0360    -2.9660     2.0890 hc         1 384       0.054200
     52 H21          1.5080    -1.2860     3.8550 hc         1 384       0.048700
     53 H22          1.9910    -0.6620     2.2930 hc         1 384       0.048700
     54 H23         -0.5420    -0.0180     3.8650 hc         1 384       0.046200
     55 H24          0.7390     1.0870     3.4530 hc         1 384       0.046200
     56 H25         -0.2930     1.6410     1.5450 h1         1 384       0.076700
     57 H26          2.0440    -1.4940    -2.1250 ha         1 384       0.172000
     58 H27          5.8930    -0.2840    -0.6690 ha         1 384       0.164000
     59 H28          2.3940     1.8820     0.5270 ha         1 384       0.172000
@<TRIPOS>BOND
     1     1     2 1   
     2     1    32 1   
     3     1    33 1   
     4     1    34 1   
     5     2     3 1   
     6     3     4 1   
     7     3    35 1   
     8     3    36 1   
     9     4     5 1   
    10     4    37 1   
    11     4    38 1   
    12     5     6 1   
    13     6     7 1   
    14     6    19 1   
    15     6    39 1   
    16     7     8 1   
    17     7    40 1   
    18     7    41 1   
    19     8     9 1   
    20     8    13 1   
    21     9    10 1   
    22     9    42 1   
    23     9    43 1   
    24    10    11 1   
    25    10    44 1   
    26    10    45 1   
    27    11    12 1   
    28    12    46 1   
    29    12    47 1   
    30    12    48 1   
    31    13    14 2   
    32    13    15 1   
    33    15    16 1   
    34    15    20 1   
    35    15    49 1   
    36    16    17 1   
    37    16    50 1   
    38    16    51 1   
    39    17    18 1   
    40    17    52 1   
    41    17    53 1   
    42    18    19 1   
    43    18    54 1   
    44    18    55 1   
    45    19    20 1   
    46    19    56 1   
    47    20    21 1   
    48    21    22 2   
    49    21    23 2   
    50    21    24 1   
    51    24    25 ar  
    52    24    31 ar  
    53    25    26 ar  
    54    25    57 1   
    55    26    27 1   
    56    26    28 ar  
    57    28    29 ar  
    58    28    58 1   
    59    29    30 1   
    60    29    31 ar  
    61    31    59 1   
@<TRIPOS>SUBSTRUCTURE
     1 384         1 TEMP              0 ****  ****    0 ROOT
