@<TRIPOS>MOLECULE
385
   89    94     1     0     0
SMALL
No Charge or Current Charge


@<TRIPOS>ATOM
      1 C1          -1.8900    -3.9250    -1.5600 c5         1 385      -0.130700
      2 C2          -2.9110    -4.6930    -0.6540 c5         1 385       0.375300
      3 C3          -1.0330    -3.1120    -0.5290 c5         1 385       0.167300
      4 C4          -2.8240    -2.9810    -2.4080 c5         1 385      -0.104400
      5 O5          -2.6820    -4.2340     0.6930 os         1 385      -0.445000
      6 O6          -4.2160    -4.2380    -1.0630 os         1 385      -0.463000
      7 C7          -2.0710    -2.9300     0.6170 c5         1 385       0.126600
      8 O8          -0.6750    -1.8330    -1.1220 os         1 385      -0.450100
      9 C9          -4.1120    -3.8240    -2.4340 c5         1 385       0.154600
     10 C10          0.0220    -0.9890    -0.3070 c          1 385       0.645100
     11 N11          0.0860     0.2260    -0.9270 ns         1 385      -0.490900
     12 O12          0.4880    -1.2530     0.7910 o          1 385      -0.547000
     13 C13          0.4800     1.4950    -0.2940 c3         1 385       0.108700
     14 C14         -0.3960     1.8070     0.9610 c3         1 385      -0.042100
     15 C15          2.0140     1.5780    -0.0080 c3         1 385       0.127300
     16 C16         -1.8460     1.3220     0.8580 ca         1 385      -0.124300
     17 C17          2.8740     1.2810    -1.2900 c3         1 385       0.186800
     18 O18          2.3260     2.8720     0.5550 oh         1 385      -0.642000
     19 C19         -2.3920     0.5230     1.8820 ca         1 385      -0.073500
     20 C20         -2.6300     1.6180    -0.2750 ca         1 385      -0.073500
     21 N21          4.3660     1.3390    -1.1790 n3         1 385      -0.778500
     22 C22         -3.6870    -0.0040     1.7560 ca         1 385      -0.170000
     23 C23         -3.9210     1.0770    -0.4090 ca         1 385      -0.170000
     24 S24          5.1360     0.0240    -0.3970 sy         1 385       1.194600
     25 C25          4.9990     2.6690    -0.9810 c3         1 385       0.228800
     26 C26         -4.4470     0.2470     0.6040 ca         1 385       0.147100
     27 C27          5.9970     0.8040     0.9820 ca         1 385      -0.305500
     28 O28          4.0730    -0.8040     0.1830 o          1 385      -0.542500
     29 O29          6.0970    -0.5270    -1.3570 o          1 385      -0.542500
     30 C30          4.6270     3.7580    -2.0260 c3         1 385      -0.071700
     31 O31         -5.6790    -0.3610     0.5010 os         1 385      -0.347100
     32 C32          7.3930     1.0330     0.9090 ca         1 385      -0.010000
     33 C33          5.2700     1.1990     2.1360 ca         1 385       0.005000
     34 C34          5.3070     5.1040    -1.6840 c3         1 385      -0.089100
     35 C35          4.9610     3.3240    -3.4740 c3         1 385      -0.089100
     36 C36         -6.4460    -0.3340    -0.7200 c3         1 385       0.139300
     37 C37          8.0160     1.6550     1.9980 ca         1 385       0.032100
     38 C38          5.9330     1.8250     3.2120 ca         1 385      -0.114000
     39 C39         -7.6420    -1.2470    -0.5700 cc         1 385       0.271300
     40 C40          7.3120     2.0370     3.1060 ca         1 385       0.106100
     41 O41          9.3360     1.9590     2.0930 os         1 385      -0.343100
     42 N42         -8.9120    -0.7180    -0.6160 nc         1 385      -0.650000
     43 C43         -7.5740    -2.6090    -0.3940 cd         1 385      -0.227000
     44 O44          8.0980     2.6300     4.0410 os         1 385      -0.340100
     45 C45          9.4370     2.5610     3.4330 c5         1 385       0.375600
     46 C46         -9.8050    -1.6860    -0.4670 cd         1 385       0.443700
     47 S47         -9.1740    -3.3150    -0.2650 ss         1 385      -0.043400
     48 C48        -11.2780    -1.3940    -0.4690 c3         1 385      -0.129400
     49 H1          -1.2920    -4.6040    -2.1780 hc         1 385       0.083700
     50 H2          -2.8220    -5.7850    -0.7360 h2         1 385       0.089700
     51 H3          -0.1380    -3.6600    -0.1990 h1         1 385       0.076700
     52 H41         -2.4290    -2.7840    -3.4110 hc         1 385       0.064700
     53 H42         -3.0290    -2.0110    -1.9390 hc         1 385       0.064700
     54 H71         -1.6130    -2.6740     1.5810 h1         1 385       0.067200
     55 H72         -2.8360    -2.1830     0.3690 h1         1 385       0.067200
     56 H91         -4.0200    -4.7080    -3.0800 h1         1 385       0.050200
     57 H92         -5.0000    -3.2480    -2.7270 h1         1 385       0.050200
     58 HN11        -0.3650     0.2600    -1.8320 hn         1 385       0.330500
     59 H13          0.2500     2.2720    -1.0360 h1         1 385       0.043700
     60 H141         0.0820     1.3480     1.8350 hc         1 385       0.071700
     61 H142        -0.3800     2.8870     1.1490 hc         1 385       0.071700
     62 H15          2.2410     0.7990     0.7310 h1         1 385       0.105700
     63 H171         2.5370     1.9660    -2.0790 h1         1 385       0.069700
     64 H172         2.5930     0.2840    -1.6550 h1         1 385       0.069700
     65 HO18         2.1930     3.5410    -0.1480 ho         1 385       0.435000
     66 H19         -1.8030     0.2860     2.7660 ha         1 385       0.115500
     67 H20         -2.2290     2.2430    -1.0700 ha         1 385       0.115500
     68 H22         -4.0930    -0.6390     2.5390 ha         1 385       0.126000
     69 H23         -4.4900     1.3020    -1.3060 ha         1 385       0.126000
     70 H251         6.0910     2.5590    -1.0360 h1         1 385       0.059700
     71 H252         4.7820     3.0520     0.0250 h1         1 385       0.059700
     72 H30          3.5470     3.9360    -1.9730 hc         1 385       0.039700
     73 H32          7.9770     0.7440     0.0370 ha         1 385       0.145000
     74 H33          4.1960     1.0310     2.1970 ha         1 385       0.148000
     75 H341         5.0030     5.8840    -2.3930 hc         1 385       0.037867
     76 H342         5.0250     5.4360    -0.6770 hc         1 385       0.037867
     77 H343         6.3990     5.0120    -1.7220 hc         1 385       0.037867
     78 H351         6.0340     3.1290    -3.5850 hc         1 385       0.037867
     79 H352         4.4180     2.4110    -3.7470 hc         1 385       0.037867
     80 H353         4.6780     4.1070    -4.1890 hc         1 385       0.037867
     81 H361        -6.7820     0.6860    -0.9460 h1         1 385       0.053700
     82 H362        -5.8410    -0.6940    -1.5630 h1         1 385       0.053700
     83 H38          5.3890     2.1380     4.1000 ha         1 385       0.145000
     84 H43         -6.6860    -3.2240    -0.3290 h4         1 385       0.174000
     85 H451         9.8530     3.5710     3.3500 h2         1 385       0.067700
     86 H452        10.0850     1.9370     4.0600 h2         1 385       0.067700
     87 H481       -11.5650    -0.8320    -1.3640 hc         1 385       0.059367
     88 H482       -11.8640    -2.3200    -0.4510 hc         1 385       0.059367
     89 H483       -11.5570    -0.8010     0.4090 hc         1 385       0.059367
@<TRIPOS>BOND
     1     1     2 1   
     2     1     3 1   
     3     1     4 1   
     4     1    49 1   
     5     2     5 1   
     6     2     6 1   
     7     2    50 1   
     8     3     7 1   
     9     3     8 1   
    10     3    51 1   
    11     4     9 1   
    12     4    52 1   
    13     4    53 1   
    14     5     7 1   
    15     6     9 1   
    16     7    54 1   
    17     7    55 1   
    18     8    10 1   
    19     9    56 1   
    20     9    57 1   
    21    10    11 1   
    22    10    12 2   
    23    11    13 1   
    24    11    58 1   
    25    13    14 1   
    26    13    15 1   
    27    13    59 1   
    28    14    16 1   
    29    14    60 1   
    30    14    61 1   
    31    15    17 1   
    32    15    18 1   
    33    15    62 1   
    34    16    19 ar  
    35    16    20 ar  
    36    17    21 1   
    37    17    63 1   
    38    17    64 1   
    39    18    65 1   
    40    19    22 ar  
    41    19    66 1   
    42    20    23 ar  
    43    20    67 1   
    44    21    24 1   
    45    21    25 1   
    46    22    26 ar  
    47    22    68 1   
    48    23    26 ar  
    49    23    69 1   
    50    24    27 1   
    51    24    28 2   
    52    24    29 2   
    53    25    30 1   
    54    25    70 1   
    55    25    71 1   
    56    26    31 1   
    57    27    32 ar  
    58    27    33 ar  
    59    30    34 1   
    60    30    35 1   
    61    30    72 1   
    62    31    36 1   
    63    32    37 ar  
    64    32    73 1   
    65    33    38 ar  
    66    33    74 1   
    67    34    75 1   
    68    34    76 1   
    69    34    77 1   
    70    35    78 1   
    71    35    79 1   
    72    35    80 1   
    73    36    39 1   
    74    36    81 1   
    75    36    82 1   
    76    37    40 ar  
    77    37    41 1   
    78    38    40 ar  
    79    38    83 1   
    80    39    42 1   
    81    39    43 2   
    82    40    44 1   
    83    41    45 1   
    84    42    46 2   
    85    43    47 1   
    86    43    84 1   
    87    44    45 1   
    88    45    85 1   
    89    45    86 1   
    90    46    47 1   
    91    46    48 1   
    92    48    87 1   
    93    48    88 1   
    94    48    89 1   
@<TRIPOS>SUBSTRUCTURE
     1 385         1 TEMP              0 ****  ****    0 ROOT
