@<TRIPOS>MOLECULE
385
   89    94     1     0     0
SMALL
bcc


@<TRIPOS>ATOM
      1 C1          -0.5980    -4.1390    -1.2700 c5         1 385      -0.130700
      2 C2          -0.9780    -5.2730    -0.3040 c5         1 385       0.328900
      3 C3           0.1540    -3.1660    -0.3690 c5         1 385       0.144100
      4 C4          -1.9540    -3.6410    -1.7770 c5         1 385      -0.104400
      5 O5          -0.7550    -4.8010     0.9980 os         1 385      -0.398600
      6 O6          -2.3340    -5.5610    -0.5050 os         1 385      -0.416600
      7 C7          -0.5280    -3.4040     0.9800 c5         1 385       0.103400
      8 O8           0.0210    -1.8560    -0.8920 os         1 385      -0.426900
      9 C9          -2.8100    -4.8900    -1.6630 c5         1 385       0.131400
     10 C10          0.5810    -0.8430    -0.2150 c          1 385       0.761100
     11 N11          0.3440     0.3240    -0.8420 ns         1 385      -0.557900
     12 O12          1.2170    -0.9870     0.8070 o          1 385      -0.596000
     13 C13          0.5870     1.6260    -0.2510 c3         1 385       0.108700
     14 C14         -0.1260     1.8160     1.1010 c3         1 385      -0.042100
     15 C15          2.0900     1.9560    -0.1760 c3         1 385       0.104100
     16 C16         -1.5530     1.3470     1.0460 ca         1 385      -0.124300
     17 C17          2.7090     1.9070    -1.5770 c3         1 385       0.186800
     18 O18          2.2980     3.1980     0.4550 oh         1 385      -0.579800
     19 C19         -1.9510     0.1600     1.6590 ca         1 385      -0.091500
     20 C20         -2.5150     2.0590     0.3410 ca         1 385      -0.091500
     21 N21          4.1510     2.1010    -1.6340 n3         1 385      -0.778500
     22 C22         -3.2510    -0.3050     1.5630 ca         1 385      -0.188000
     23 C23         -3.8260     1.6110     0.2310 ca         1 385      -0.188000
     24 S24          5.1380     0.8050    -1.4600 sy         1 385       1.336200
     25 C25          4.6850     3.4630    -1.6450 c3         1 385       0.228800
     26 C26         -4.1990     0.4180     0.8420 ca         1 385       0.147100
     27 C27          5.2140     0.4410     0.2710 ca         1 385      -0.305500
     28 O28          4.5050    -0.3320    -2.1130 o          1 385      -0.613300
     29 O29          6.4730     1.2120    -1.8740 o          1 385      -0.613300
     30 C30          4.4710     4.1800    -2.9770 c3         1 385      -0.071700
     31 O31         -5.4440    -0.1070     0.7960 os         1 385      -0.323900
     32 C32          5.9640     1.3000     1.0910 ca         1 385      -0.028000
     33 C33          4.5030    -0.6320     0.7760 ca         1 385      -0.013000
     34 C34          4.9430     5.6230    -2.8350 c3         1 385      -0.089100
     35 C35          5.1730     3.4740    -4.1280 c3         1 385      -0.089100
     36 C36         -6.4340     0.5670     0.0600 c3         1 385       0.116100
     37 C37          5.9440     1.0190     2.4290 ca         1 385       0.032100
     38 C38          4.5010    -0.8990     2.1480 ca         1 385      -0.132000
     39 C39         -7.7010    -0.2170     0.1550 cc         1 385       0.336600
     40 C40          5.2320    -0.0570     2.9470 ca         1 385       0.106100
     41 O41          6.5620     1.6740     3.4340 os         1 385      -0.319900
     42 N42         -8.8060     0.2860    -0.4740 nc         1 385      -0.650000
     43 C43         -7.8870    -1.3920     0.8060 cd         1 385      -0.165400
     44 O44          5.3880    -0.0950     4.2830 os         1 385      -0.316900
     45 C45          6.3020     0.9420     4.6260 c5         1 385       0.329200
     46 C46         -9.8390    -0.4790    -0.3210 cd         1 385       0.443700
     47 S47         -9.5190    -1.8920     0.6240 ss         1 385      -0.188300
     48 C48        -11.1850    -0.2150    -0.8970 c3         1 385      -0.129400
     49 H1           0.0160    -4.5030    -2.0950 hc         1 385       0.083700
     50 H2          -0.3880    -6.1870    -0.4250 h2         1 385       0.089700
     51 H3           1.2110    -3.4410    -0.3070 h1         1 385       0.076700
     52 H41         -1.9090    -3.2560    -2.7940 hc         1 385       0.064700
     53 H42         -2.3610    -2.8490    -1.1430 hc         1 385       0.064700
     54 H71          0.0950    -3.1480     1.8340 h1         1 385       0.067200
     55 H72         -1.4610    -2.8290     1.0480 h1         1 385       0.067200
     56 H91         -2.6990    -5.5270    -2.5470 h1         1 385       0.050200
     57 H92         -3.8710    -4.6760    -1.5320 h1         1 385       0.050200
     58 HN11        -0.2700     0.2960    -1.6410 hn         1 385       0.330500
     59 H13          0.1340     2.3270    -0.9600 h1         1 385       0.043700
     60 H141         0.4120     1.2850     1.8880 hc         1 385       0.071700
     61 H142        -0.0920     2.8750     1.3590 hc         1 385       0.071700
     62 H15          2.5770     1.2210     0.4670 h1         1 385       0.105700
     63 H171         2.2550     2.6820    -2.2010 h1         1 385       0.069700
     64 H172         2.4530     0.9630    -2.0520 h1         1 385       0.069700
     65 HO18         1.8400     3.8840    -0.0450 ho         1 385       0.396000
     66 H19         -1.2310    -0.4170     2.2270 ha         1 385       0.133500
     67 H20         -2.2460     2.9920    -0.1420 ha         1 385       0.133500
     68 H22         -3.5380    -1.2310     2.0460 ha         1 385       0.144000
     69 H23         -4.5340     2.2050    -0.3330 ha         1 385       0.144000
     70 H251         5.7530     3.4370    -1.4320 h1         1 385       0.059700
     71 H252         4.2240     4.0290    -0.8350 h1         1 385       0.059700
     72 H30          3.3960     4.2040    -3.1920 hc         1 385       0.039700
     73 H32          6.5270     2.1360     0.6980 ha         1 385       0.163000
     74 H33          3.9280    -1.2690     0.1210 ha         1 385       0.166000
     75 H341         4.7730     6.1850    -3.7540 hc         1 385       0.037867
     76 H342         4.4160     6.1380    -2.0300 hc         1 385       0.037867
     77 H343         6.0120     5.6680    -2.6120 hc         1 385       0.037867
     78 H351         6.2540     3.4520    -3.9750 hc         1 385       0.037867
     79 H352         4.8300     2.4450    -4.2430 hc         1 385       0.037867
     80 H353         4.9810     3.9890    -5.0700 hc         1 385       0.037867
     81 H361        -6.6010     1.5800     0.4480 h1         1 385       0.053700
     82 H362        -6.1450     0.6700    -0.9930 h1         1 385       0.053700
     83 H38          3.9460    -1.7340     2.5530 ha         1 385       0.163000
     84 H43         -7.1790    -1.9760     1.3710 h4         1 385       0.192000
     85 H451         5.8520     1.5980     5.3720 h2         1 385       0.067700
     86 H452         7.2300     0.5060     5.0050 h2         1 385       0.067700
     87 H481       -11.4250    -0.9350    -1.6800 hc         1 385       0.059367
     88 H482       -11.9640    -0.2840    -0.1380 hc         1 385       0.059367
     89 H483       -11.2090     0.7820    -1.3300 hc         1 385       0.059367
@<TRIPOS>BOND
     1     1     2 1   
     2     1     3 1   
     3     1     4 1   
     4     1    49 1   
     5     2     5 1   
     6     2     6 1   
     7     2    50 1   
     8     3     7 1   
     9     3     8 1   
    10     3    51 1   
    11     4     9 1   
    12     4    52 1   
    13     4    53 1   
    14     5     7 1   
    15     6     9 1   
    16     7    54 1   
    17     7    55 1   
    18     8    10 1   
    19     9    56 1   
    20     9    57 1   
    21    10    11 1   
    22    10    12 2   
    23    11    13 1   
    24    11    58 1   
    25    13    14 1   
    26    13    15 1   
    27    13    59 1   
    28    14    16 1   
    29    14    60 1   
    30    14    61 1   
    31    15    17 1   
    32    15    18 1   
    33    15    62 1   
    34    16    19 ar  
    35    16    20 ar  
    36    17    21 1   
    37    17    63 1   
    38    17    64 1   
    39    18    65 1   
    40    19    22 ar  
    41    19    66 1   
    42    20    23 ar  
    43    20    67 1   
    44    21    24 1   
    45    21    25 1   
    46    22    26 ar  
    47    22    68 1   
    48    23    26 ar  
    49    23    69 1   
    50    24    27 1   
    51    24    28 2   
    52    24    29 2   
    53    25    30 1   
    54    25    70 1   
    55    25    71 1   
    56    26    31 1   
    57    27    32 ar  
    58    27    33 ar  
    59    30    34 1   
    60    30    35 1   
    61    30    72 1   
    62    31    36 1   
    63    32    37 ar  
    64    32    73 1   
    65    33    38 ar  
    66    33    74 1   
    67    34    75 1   
    68    34    76 1   
    69    34    77 1   
    70    35    78 1   
    71    35    79 1   
    72    35    80 1   
    73    36    39 1   
    74    36    81 1   
    75    36    82 1   
    76    37    40 ar  
    77    37    41 1   
    78    38    40 ar  
    79    38    83 1   
    80    39    42 1   
    81    39    43 2   
    82    40    44 1   
    83    41    45 1   
    84    42    46 2   
    85    43    47 1   
    86    43    84 1   
    87    44    45 1   
    88    45    85 1   
    89    45    86 1   
    90    46    47 1   
    91    46    48 1   
    92    48    87 1   
    93    48    88 1   
    94    48    89 1   
@<TRIPOS>SUBSTRUCTURE
     1 385         1 TEMP              0 ****  ****    0 ROOT
