@<TRIPOS>MOLECULE
386
   46    50     1     0     0
SMALL
No Charge or Current Charge


@<TRIPOS>ATOM
      1 N1          -3.1580     0.1650     0.4100 ns         1 386      -0.467400
      2 C2          -4.5560    -2.3040     0.8300 ca         1 386      -0.074000
      3 O2          -5.1340     1.2570     0.6550 o          1 386      -0.549100
      4 N3           1.8220     0.8090     0.2370 ns         1 386      -0.395400
      5 C4          -5.1790    -3.5590     0.7600 ca         1 386      -0.107000
      6 N4           4.2090     1.3200     0.1860 na         1 386      -0.308600
      7 C5          -7.1440    -2.5300    -0.2250 ca         1 386      -0.122000
      8 C6          -6.4710    -3.6720     0.2340 ca         1 386      -0.068000
      9 C19          9.3340    -1.4700    -0.5260 c5         1 386       0.596000
     10 F4          10.0490    -1.5440    -1.7180 f          1 386      -0.085500
     11 O4           8.9130    -0.0830    -0.2870 os         1 386      -0.356100
     12 C15          7.5610    -0.1910    -0.2310 ca         1 386       0.059100
     13 C17          6.6620     0.8680    -0.0170 ca         1 386      -0.072000
     14 O5           8.1600    -2.3510    -0.5990 os         1 386      -0.355100
     15 C16          7.1300    -1.4860    -0.4080 ca         1 386       0.037100
     16 C18          5.7650    -1.8260    -0.3870 ca         1 386      -0.026000
     17 C20          4.8560    -0.7710    -0.1740 ca         1 386       0.095400
     18 C14          5.2990     0.5170     0.0020 ca         1 386      -0.082200
     19 N5           3.4740    -0.8380    -0.1090 nc         1 386      -0.621100
     20 C13          3.1260     0.4390     0.1080 cd         1 386       0.496400
     21 C12          1.3010     2.0610     0.4600 c          1 386       0.554600
     22 O3           2.0000     3.0640     0.5770 o          1 386      -0.595100
     23 C10         -0.2030     2.0440     0.5390 cc         1 386       0.232500
     24 C11         -0.9120     3.2030     0.7580 cd         1 386      -0.243000
     25 S           -2.6360     2.8870     0.8030 ss         1 386       0.124600
     26 N2          -0.9670     0.8950     0.4020 nc         1 386      -0.711000
     27 C9          -2.2520     1.1820     0.5160 cd         1 386       0.536300
     28 C8          -4.5290     0.2110     0.4720 c          1 386       0.629700
     29 C1          -5.2190    -1.1350     0.3720 ca         1 386      -0.146600
     30 C3          -6.5300    -1.2550    -0.1620 ca         1 386       0.157100
     31 O1          -7.1550    -0.1170    -0.6450 os         1 386      -0.404100
     32 C7          -8.4830    -0.0830    -1.2070 c3         1 386       0.524000
     33 F3          -8.5860    -0.8470    -2.3190 f          1 386      -0.102000
     34 F2          -9.4210    -0.4980    -0.3240 f          1 386      -0.102000
     35 F1          -8.8140     1.1760    -1.5660 f          1 386      -0.102000
     36 H1          -2.7750    -0.7500     0.2360 hn         1 386       0.348500
     37 H2          -3.5630    -2.2510     1.2710 ha         1 386       0.128000
     38 H3           1.1180     0.0870     0.1630 hn         1 386       0.377500
     39 H4          -4.6610    -4.4440     1.1210 ha         1 386       0.130000
     40 H5           4.1570     2.3190     0.3440 hn         1 386       0.392000
     41 H6          -8.1410    -2.6630    -0.6310 ha         1 386       0.145000
     42 H7          -6.9530    -4.6470     0.1810 ha         1 386       0.130000
     43 H8           7.0040     1.8900     0.1230 ha         1 386       0.148000
     44 H9           5.4280    -2.8490    -0.5280 ha         1 386       0.156000
     45 H11         -0.5280     4.2060     0.8930 h4         1 386       0.182000
     46 F5          10.1700    -1.8900     0.5070 f          1 386      -0.085500
@<TRIPOS>BOND
     1     1    27 1   
     2     1    28 1   
     3     1    36 1   
     4     2     5 ar  
     5     2    29 ar  
     6     2    37 1   
     7     3    28 2   
     8     4    20 1   
     9     4    21 1   
    10     4    38 1   
    11     5     8 ar  
    12     5    39 1   
    13     6    18 1   
    14     6    20 1   
    15     6    40 1   
    16     7     8 ar  
    17     7    30 ar  
    18     7    41 1   
    19     8    42 1   
    20     9    10 1   
    21     9    11 1   
    22     9    14 1   
    23     9    46 1   
    24    11    12 1   
    25    12    13 ar  
    26    12    15 ar  
    27    13    18 ar  
    28    13    43 1   
    29    14    15 1   
    30    15    16 ar  
    31    16    17 ar  
    32    16    44 1   
    33    17    18 ar  
    34    17    19 1   
    35    19    20 2   
    36    21    22 2   
    37    21    23 1   
    38    23    24 2   
    39    23    26 1   
    40    24    25 1   
    41    24    45 1   
    42    25    27 1   
    43    26    27 2   
    44    28    29 1   
    45    29    30 ar  
    46    30    31 1   
    47    31    32 1   
    48    32    33 1   
    49    32    34 1   
    50    32    35 1   
@<TRIPOS>SUBSTRUCTURE
     1 386         1 TEMP              0 ****  ****    0 ROOT
