@<TRIPOS>MOLECULE
386
   46    50     1     0     0
SMALL
bcc


@<TRIPOS>ATOM
      1 N1          -3.1330    -0.2320     0.2990 ns         1 386      -0.534400
      2 C2          -4.8790    -2.4500     0.9970 ca         1 386      -0.092000
      3 O2          -4.9750     1.0400     0.4960 o          1 386      -0.549100
      4 N3           1.7500     0.5670     0.2150 ns         1 386      -0.462400
      5 C4          -5.6310    -3.6130     0.9490 ca         1 386      -0.125000
      6 N4           4.0610     1.2270     0.1750 na         1 386      -0.258300
      7 C5          -7.1700    -2.5550    -0.5710 ca         1 386      -0.140000
      8 C6          -6.7710    -3.6650     0.1610 ca         1 386      -0.086000
      9 C19          9.3500    -1.0900    -0.4990 c5         1 386       0.792200
     10 F4          10.0290    -1.1190    -1.6510 f          1 386      -0.206800
     11 O4           8.8520     0.1640    -0.2750 os         1 386      -0.332900
     12 C15          7.4880     0.0490    -0.1970 ca         1 386       0.059100
     13 C17          6.5660     1.0440    -0.0050 ca         1 386      -0.090000
     14 O5           8.3250    -1.9920    -0.5290 os         1 386      -0.331900
     15 C16          7.1580    -1.2900    -0.3550 ca         1 386       0.037100
     16 C18          5.8770    -1.7690    -0.3350 ca         1 386      -0.044000
     17 C20          4.9010    -0.7830    -0.1410 ca         1 386       0.095400
     18 C14          5.2540     0.5720     0.0170 ca         1 386      -0.082200
     19 N5           3.5380    -0.9230    -0.0790 nc         1 386      -0.621100
     20 C13          3.0890     0.2880     0.1060 cd         1 386       0.496400
     21 C12          1.1940     1.7940     0.4010 c          1 386       0.621600
     22 O3           1.8390     2.8220     0.5090 o          1 386      -0.595100
     23 C10         -0.2800     1.7740     0.4610 cc         1 386       0.297800
     24 C11         -1.0460     2.8780     0.6470 cd         1 386      -0.181400
     25 S           -2.7030     2.4470     0.6500 ss         1 386      -0.020300
     26 N2          -0.9580     0.5960     0.3270 nc         1 386      -0.711000
     27 C9          -2.2310     0.7950     0.4060 cd         1 386       0.536300
     28 C8          -4.4840    -0.0630     0.3660 c          1 386       0.696700
     29 C1          -5.2720    -1.3210     0.2820 ca         1 386      -0.146600
     30 C3          -6.4290    -1.3900    -0.4900 ca         1 386       0.157100
     31 O1          -6.7630    -0.2930    -1.2620 os         1 386      -0.380900
     32 C7          -7.8440     0.4310    -0.9330 c3         1 386       0.864700
     33 F3          -8.9780    -0.1360    -1.3590 f          1 386      -0.223300
     34 F2          -7.9730     0.6100     0.3770 f          1 386      -0.223300
     35 F1          -7.7370     1.6100    -1.5220 f          1 386      -0.223300
     36 H1          -2.7400    -1.1440     0.1100 hn         1 386       0.348500
     37 H2          -3.9940    -2.4140     1.6190 ha         1 386       0.146000
     38 H3           1.1280    -0.2270     0.1340 hn         1 386       0.377500
     39 H4          -5.3230    -4.4760     1.5210 ha         1 386       0.148000
     40 H5           3.9120     2.2160     0.3040 hn         1 386       0.341700
     41 H6          -8.0400    -2.6110    -1.2110 ha         1 386       0.163000
     42 H7          -7.3530    -4.5740     0.1030 ha         1 386       0.148000
     43 H8           6.8300     2.0860     0.1150 ha         1 386       0.166000
     44 H9           5.6340    -2.8150    -0.4610 ha         1 386       0.174000
     45 H11         -0.7280     3.9010     0.7750 h4         1 386       0.200000
     46 F5          10.2290    -1.4160     0.4530 f          1 386      -0.206800
@<TRIPOS>BOND
     1     1    27 1   
     2     1    28 1   
     3     1    36 1   
     4     2     5 ar  
     5     2    29 ar  
     6     2    37 1   
     7     3    28 2   
     8     4    20 1   
     9     4    21 1   
    10     4    38 1   
    11     5     8 ar  
    12     5    39 1   
    13     6    18 1   
    14     6    20 1   
    15     6    40 1   
    16     7     8 ar  
    17     7    30 ar  
    18     7    41 1   
    19     8    42 1   
    20     9    10 1   
    21     9    11 1   
    22     9    14 1   
    23     9    46 1   
    24    11    12 1   
    25    12    13 ar  
    26    12    15 ar  
    27    13    18 ar  
    28    13    43 1   
    29    14    15 1   
    30    15    16 ar  
    31    16    17 ar  
    32    16    44 1   
    33    17    18 ar  
    34    17    19 1   
    35    19    20 2   
    36    21    22 2   
    37    21    23 1   
    38    23    24 2   
    39    23    26 1   
    40    24    25 1   
    41    24    45 1   
    42    25    27 1   
    43    26    27 2   
    44    28    29 1   
    45    29    30 ar  
    46    30    31 1   
    47    31    32 1   
    48    32    33 1   
    49    32    34 1   
    50    32    35 1   
@<TRIPOS>SUBSTRUCTURE
     1 386         1 TEMP              0 ****  ****    0 ROOT
