@<TRIPOS>MOLECULE
387
   43    44     1     0     0
SMALL
bcc


@<TRIPOS>ATOM
      1 CAI          5.6560    -0.5350     1.0860 ca         1 387      -0.112500
      2 CAU          6.8400    -0.3090     0.4040 ca         1 387       0.032400
      3 CLC          8.3090    -1.0000     1.0070 cl         1 387      -0.102900
      4 CAH          6.8840     0.4480    -0.7550 ca         1 387      -0.115000
      5 CAV          5.6910     0.9840    -1.2140 ca         1 387       0.032400
      6 CLD          5.7090     1.9330    -2.6630 cl         1 387      -0.102900
      7 CAJ          4.4920     0.7820    -0.5530 ca         1 387      -0.112500
      8 CAW          4.4720     0.0180     0.6100 ca         1 387      -0.071300
      9 CAO          3.1880    -0.1840     1.3740 c3         1 387       0.206100
     10 NAP          2.0360    -0.2060     0.5020 n7         1 387      -0.811200
     11 CAM          0.7790    -0.2490     1.2240 c3         1 387       0.163800
     12 CAL         -0.3960    -0.2740     0.2600 c3         1 387      -0.098400
     13 CAN         -1.7260    -0.2700     0.9970 c3         1 387       0.114000
     14 NAQ         -2.8200    -0.3620     0.0540 ns         1 387      -0.587900
     15 CAS         -4.0910    -0.0400     0.3940 c          1 387       0.795100
     16 OAA         -4.3820     0.4770     1.4630 o          1 387      -0.615100
     17 NAR         -5.0080    -0.3320    -0.5880 ns         1 387      -0.489100
     18 CAX         -6.3850    -0.1380    -0.5900 ca         1 387       0.129600
     19 CAK         -7.0940     0.4860     0.4340 ca         1 387      -0.194000
     20 CAG         -7.0770    -0.6070    -1.7160 ca         1 387      -0.234000
     21 CAE         -8.4470    -0.4490    -1.8000 ca         1 387      -0.057000
     22 CAF         -9.1660     0.1690    -0.7860 ca         1 387      -0.258000
     23 CAT         -8.4760     0.6340     0.3280 ca         1 387       0.168100
     24 OAB         -9.0980     1.2490     1.3550 oh         1 387      -0.491100
     25 H1           5.6530    -1.1420     1.9820 ha         1 387       0.158500
     26 H2           7.8130     0.6110    -1.2840 ha         1 387       0.163000
     27 H3           3.5730     1.2060    -0.9350 ha         1 387       0.158500
     28 H4           3.2800    -1.0830     2.0020 h1         1 387       0.043200
     29 H5           0.7110    -1.1110     1.9070 h1         1 387       0.034700
     30 H6           0.7160     0.6450     1.8530 h1         1 387       0.034700
     31 H7          -0.3400     0.5920    -0.4050 hc         1 387       0.052200
     32 H8          -0.3260    -1.1670    -0.3700 hc         1 387       0.052200
     33 H9          -1.7570    -1.0970     1.7160 h1         1 387       0.054700
     34 H10         -1.8250     0.6530     1.5690 h1         1 387       0.054700
     35 H11         -2.6610    -0.9340    -0.7610 hn         1 387       0.303500
     36 H12         -4.6500    -0.7580    -1.4290 hn         1 387       0.310500
     37 H13         -6.5940     0.8660     1.3100 ha         1 387       0.183000
     38 H14         -6.5380    -1.0930    -2.5200 ha         1 387       0.126000
     39 H15         -8.9690    -0.8180    -2.6740 ha         1 387       0.129000
     40 H16        -10.2410     0.2860    -0.8650 ha         1 387       0.133000
     41 H17        -10.0430     1.3110     1.1830 ho         1 387       0.424000
     42 H18          3.0690     0.6530     2.0700 h1         1 387       0.043200
     43 H19          2.0980    -1.0140    -0.1070 hn         1 387       0.356800
@<TRIPOS>BOND
     1     1     2 ar  
     2     1     8 ar  
     3     1    25 1   
     4     2     3 1   
     5     2     4 ar  
     6     4     5 ar  
     7     4    26 1   
     8     5     6 1   
     9     5     7 ar  
    10     7     8 ar  
    11     7    27 1   
    12     8     9 1   
    13     9    10 1   
    14     9    28 1   
    15     9    42 1   
    16    10    11 1   
    17    10    43 1   
    18    11    12 1   
    19    11    29 1   
    20    11    30 1   
    21    12    13 1   
    22    12    31 1   
    23    12    32 1   
    24    13    14 1   
    25    13    33 1   
    26    13    34 1   
    27    14    15 1   
    28    14    35 1   
    29    15    16 2   
    30    15    17 1   
    31    17    18 1   
    32    17    36 1   
    33    18    19 ar  
    34    18    20 ar  
    35    19    23 ar  
    36    19    37 1   
    37    20    21 ar  
    38    20    38 1   
    39    21    22 ar  
    40    21    39 1   
    41    22    23 ar  
    42    22    40 1   
    43    23    24 1   
    44    24    41 1   
@<TRIPOS>SUBSTRUCTURE
     1 387         1 TEMP              0 ****  ****    0 ROOT
