@<TRIPOS>MOLECULE
387
   43    44     1     0     0
SMALL
No Charge or Current Charge


@<TRIPOS>ATOM
      1 CAI          5.2840    -1.0890     0.6610 ca         1 387      -0.094500
      2 CAU          6.4280    -1.2700    -0.1340 ca         1 387       0.124000
      3 ClC          7.3240    -2.7810    -0.0470 cl         1 387      -0.194500
      4 CAH          6.8600    -0.2510    -0.9960 ca         1 387      -0.097000
      5 CAV          6.1420     0.9540    -1.0640 ca         1 387       0.124000
      6 ClD          6.6770     2.2330    -2.1450 cl         1 387      -0.194500
      7 CAJ          4.9970     1.1400    -0.2710 ca         1 387      -0.094500
      8 CAW          4.5600     0.1200     0.5980 ca         1 387      -0.071300
      9 CAO          3.3190     0.3240     1.4550 c3         1 387       0.206100
     10 NAP          2.1010     0.1260     0.6490 n7         1 387      -0.866400
     11 CAM          0.8330     0.2820     1.3810 c3         1 387       0.163800
     12 CAL         -0.3560     0.0700     0.4260 c3         1 387      -0.098400
     13 CAN         -1.7140     0.2330     1.1310 c3         1 387       0.114000
     14 NAQ         -2.8310     0.0290     0.2080 ns         1 387      -0.520900
     15 CAS         -4.1550     0.0900     0.5740 c          1 387       0.661100
     16 OAA         -4.5010     0.3240     1.7230 o          1 387      -0.615100
     17 NAR         -5.0090    -0.1410    -0.4920 ns         1 387      -0.163000
     18 CAX         -6.4250    -0.1770    -0.5880 ca         1 387       0.037000
     19 CAK         -7.2920     0.0400     0.5050 ca         1 387      -0.176000
     20 CAG         -6.9840    -0.4460    -1.8520 ca         1 387      -0.216000
     21 CAE         -8.3760    -0.4990    -2.0280 ca         1 387      -0.039000
     22 CAF         -9.2270    -0.2810    -0.9340 ca         1 387      -0.240000
     23 CAT         -8.6820    -0.0120     0.3290 ca         1 387       0.168100
     24 OAB         -9.5050     0.1990     1.3920 oh         1 387      -0.530100
     25 H1           4.9600    -1.8870     1.3240 ha         1 387       0.140500
     26 H2           7.7450    -0.3930    -1.6100 ha         1 387       0.145000
     27 H3           4.4450     2.0750    -0.3340 ha         1 387       0.140500
     28 H4           3.3410    -0.3800     2.2990 h1         1 387       0.043200
     29 H5           0.7700    -0.4470     2.2010 h1         1 387       0.034700
     30 H6           0.7660     1.2880     1.8190 h1         1 387       0.034700
     31 H7          -0.2900     0.7920    -0.3980 hc         1 387       0.052200
     32 H8          -0.2960    -0.9340    -0.0120 hc         1 387       0.052200
     33 H9          -1.7930    -0.4950     1.9500 h1         1 387       0.054700
     34 H10         -1.7890     1.2420     1.5590 h1         1 387       0.054700
     35 H11         -2.6270    -0.1700    -0.7630 hn         1 387       0.303500
     36 H12         -4.5400    -0.3180    -1.3690 hn         1 387       0.144000
     37 H13         -6.9090     0.2500     1.4980 ha         1 387       0.165000
     38 H14         -6.3340    -0.6160    -2.7070 ha         1 387       0.108000
     39 H15         -8.7940    -0.7080    -3.0120 ha         1 387       0.111000
     40 H16        -10.3040    -0.3220    -1.0750 ha         1 387       0.115000
     41 H17        -10.4320     0.1240     1.0800 ho         1 387       0.463000
     42 H18          3.3400     1.3380     1.8770 h1         1 387       0.043200
     43 H19          2.1340    -0.8240     0.2600 hn         1 387       0.412000
@<TRIPOS>BOND
     1     1     2 ar  
     2     1     8 ar  
     3     1    25 1   
     4     2     3 1   
     5     2     4 ar  
     6     4     5 ar  
     7     4    26 1   
     8     5     6 1   
     9     5     7 ar  
    10     7     8 ar  
    11     7    27 1   
    12     8     9 1   
    13     9    10 1   
    14     9    28 1   
    15     9    42 1   
    16    10    11 1   
    17    10    43 1   
    18    11    12 1   
    19    11    29 1   
    20    11    30 1   
    21    12    13 1   
    22    12    31 1   
    23    12    32 1   
    24    13    14 1   
    25    13    33 1   
    26    13    34 1   
    27    14    15 1   
    28    14    35 1   
    29    15    16 2   
    30    15    17 1   
    31    17    18 1   
    32    17    36 1   
    33    18    19 ar  
    34    18    20 ar  
    35    19    23 ar  
    36    19    37 1   
    37    20    21 ar  
    38    20    38 1   
    39    21    22 ar  
    40    21    39 1   
    41    22    23 ar  
    42    22    40 1   
    43    23    24 1   
    44    24    41 1   
@<TRIPOS>SUBSTRUCTURE
     1 387         1 TEMP              0 ****  ****    0 ROOT
