@<TRIPOS>MOLECULE
388
   35    36     1     0     0
SMALL
abcg2


@<TRIPOS>ATOM
      1 C1           3.7000    -2.4250    -3.5050 c3         1 388       0.156300
      2 N10          3.5450    -2.1490    -2.0960 ns         1 388      -0.480900
      3 C11          2.5530    -1.3630    -1.6670 c          1 388       0.617700
      4 O12          1.7460    -0.8480    -2.4370 o          1 388      -0.672100
      5 C2           4.2140    -1.2430    -4.2860 ca         1 388      -0.114300
      6 C7           5.4970    -0.7530    -4.0900 ca         1 388       0.193000
      7 F9           6.2890    -1.3620    -3.1970 f          1 388      -0.147000
      8 C6           6.0100     0.3320    -4.7740 ca         1 388      -0.147000
      9 C5           5.1920     0.9550    -5.7040 ca         1 388       0.003100
     10 BR8          5.8570     2.4390    -6.6600 br         1 388      -0.126100
     11 C4           3.9020     0.5070    -5.9430 ca         1 388      -0.119000
     12 C3           3.4310    -0.5840    -5.2250 ca         1 388      -0.062000
     13 C8           2.4670    -1.0560    -0.2000 ca         1 388      -0.175600
     14 C9           1.9300     0.1830     0.1430 ca         1 388      -0.033000
     15 C10          1.8070     0.5960     1.4580 ca         1 388      -0.175000
     16 C12          2.2060    -0.2780     2.4560 ca         1 388       0.167000
     17 CL1          2.0470     0.1940     4.1140 cl         1 388      -0.235000
     18 C14          2.7130    -1.5310     2.1650 ca         1 388      -0.207000
     19 C15          2.8530    -1.9220     0.8330 ca         1 388       0.213100
     20 O20          3.2910    -3.1420     0.5000 os         1 388      -0.344100
     21 C21          4.3160    -3.7830     1.2440 c3         1 388       0.010600
     22 C22          5.4910    -4.1670     0.3290 c          1 388       0.723000
     23 O24          5.5330    -3.6530    -0.8070 o          1 388      -0.710000
     24 O23          6.3150    -4.9390     0.8410 o          1 388      -0.710000
     25 H11          2.7530    -2.7490    -3.9410 h1         1 388       0.061200
     26 H12          4.3900    -3.2640    -3.5920 h1         1 388       0.061200
     27 HN10         4.2160    -2.6040    -1.4670 hn         1 388       0.410500
     28 H6           7.0210     0.6660    -4.5790 ha         1 388       0.139000
     29 H4           3.2640     0.9930    -6.6680 ha         1 388       0.122000
     30 H3           2.4220    -0.9320    -5.4030 ha         1 388       0.126000
     31 H9           1.6160     0.8540    -0.6450 ha         1 388       0.130000
     32 H10          1.4050     1.5700     1.6980 ha         1 388       0.118000
     33 H14          2.9740    -2.2080     2.9680 ha         1 388       0.134000
     34 H211         4.7040    -3.1340     2.0360 h1         1 388       0.035700
     35 H212         3.9030    -4.6720     1.7270 h1         1 388       0.035700
@<TRIPOS>BOND
     1     1     2 1   
     2     1     5 1   
     3     1    25 1   
     4     1    26 1   
     5     2     3 1   
     6     2    27 1   
     7     3     4 2   
     8     3    13 1   
     9     5     6 ar  
    10     5    12 ar  
    11     6     7 1   
    12     6     8 ar  
    13     8     9 ar  
    14     8    28 1   
    15     9    10 1   
    16     9    11 ar  
    17    11    12 ar  
    18    11    29 1   
    19    12    30 1   
    20    13    14 ar  
    21    13    19 ar  
    22    14    15 ar  
    23    14    31 1   
    24    15    16 ar  
    25    15    32 1   
    26    16    17 1   
    27    16    18 ar  
    28    18    19 ar  
    29    18    33 1   
    30    19    20 1   
    31    20    21 1   
    32    21    22 1   
    33    21    34 1   
    34    21    35 1   
    35    22    23 1   
    36    22    24 1   
@<TRIPOS>SUBSTRUCTURE
     1 388         1 TEMP              0 ****  ****    0 ROOT
