@<TRIPOS>MOLECULE
388
   35    36     1     0     0
SMALL
No Charge or Current Charge


@<TRIPOS>ATOM
      1 C1           3.3580    -2.3430    -3.6320 c3         1 388       0.156300
      2 N10          3.1710    -2.0370    -2.2150 ns         1 388      -0.480900
      3 C11          2.2010    -1.2130    -1.7000 c          1 388       0.617700
      4 O12          1.3790    -0.6900    -2.4420 o          1 388      -0.672100
      5 C2           4.1590    -1.2600    -4.3440 ca         1 388      -0.114300
      6 C7           5.5690    -1.2510    -4.2950 ca         1 388       0.193000
      7 F9           6.2350    -2.2080    -3.6120 f          1 388      -0.147000
      8 C6           6.3010    -0.2480    -4.9520 ca         1 388      -0.147000
      9 C5           5.6260     0.7560    -5.6650 ca         1 388       0.003100
     10 Br8          6.6200     2.1220    -6.5590 br         1 388      -0.126100
     11 C4           4.2230     0.7580    -5.7200 ca         1 388      -0.119000
     12 C3           3.4910    -0.2470    -5.0620 ca         1 388      -0.062000
     13 C8           2.1770    -0.9740    -0.1980 ca         1 388      -0.175600
     14 C9           1.2320    -0.0460     0.3040 ca         1 388      -0.033000
     15 C10          1.1520     0.2350     1.6760 ca         1 388      -0.175000
     16 C12          2.0130    -0.4050     2.5710 ca         1 388       0.167000
     17 Cl1          1.9120    -0.0500     4.2900 cl         1 388      -0.235000
     18 C14          2.9530    -1.3280     2.1030 ca         1 388      -0.207000
     19 C15          3.0450    -1.6230     0.7250 ca         1 388       0.213100
     20 O20          3.9650    -2.5470     0.2690 os         1 388      -0.344100
     21 C21          4.8670    -3.2740     1.1400 c3         1 388       0.010600
     22 C22          5.7630    -4.2860     0.3690 c          1 388       0.723000
     23 O24          5.6210    -4.4050    -0.8420 o          1 388      -0.710000
     24 O23          6.5810    -4.9290     1.0140 o          1 388      -0.710000
     25 H11          2.3760    -2.4600    -4.1110 h1         1 388       0.061200
     26 H12          3.8780    -3.3060    -3.7180 h1         1 388       0.061200
     27 HN10         3.8040    -2.4530    -1.5380 hn         1 388       0.410500
     28 H6           7.3860    -0.2530    -4.9060 ha         1 388       0.139000
     29 H4           3.7010     1.5370    -6.2710 ha         1 388       0.122000
     30 H3           2.4040    -0.2350    -5.1070 ha         1 388       0.126000
     31 H9           0.5510     0.4680    -0.3720 ha         1 388       0.130000
     32 H10          0.4220     0.9510     2.0430 ha         1 388       0.118000
     33 H14          3.6030    -1.8070     2.8280 ha         1 388       0.134000
     34 H211         5.5310    -2.5780     1.6680 h1         1 388       0.035700
     35 H212         4.3000    -3.8440     1.8860 h1         1 388       0.035700
@<TRIPOS>BOND
     1     1     2 1   
     2     1     5 1   
     3     1    25 1   
     4     1    26 1   
     5     2     3 1   
     6     2    27 1   
     7     3     4 2   
     8     3    13 1   
     9     5     6 ar  
    10     5    12 ar  
    11     6     7 1   
    12     6     8 ar  
    13     8     9 ar  
    14     8    28 1   
    15     9    10 1   
    16     9    11 ar  
    17    11    12 ar  
    18    11    29 1   
    19    12    30 1   
    20    13    14 ar  
    21    13    19 ar  
    22    14    15 ar  
    23    14    31 1   
    24    15    16 ar  
    25    15    32 1   
    26    16    17 1   
    27    16    18 ar  
    28    18    19 ar  
    29    18    33 1   
    30    19    20 1   
    31    20    21 1   
    32    21    22 1   
    33    21    34 1   
    34    21    35 1   
    35    22    23 1   
    36    22    24 1   
@<TRIPOS>SUBSTRUCTURE
     1 388         1 TEMP              0 ****  ****    0 ROOT
