@<TRIPOS>MOLECULE
389
   70    72     1     0     0
SMALL
abcg2


@<TRIPOS>ATOM
      1 N1          22.8370    49.3140    -7.1020 n8         1 389      -0.977200
      2 C2          23.1250    48.7930    -5.7800 c3         1 389       0.081500
      3 C3          22.8740    49.7820    -4.6350 c3         1 389      -0.133100
      4 C4          22.2810    47.5480    -5.5420 c          1 389       0.611100
      5 O5          21.1610    47.4310    -6.0150 o          1 389      -0.604100
      6 N6          22.8520    46.6340    -4.7370 ns         1 389      -0.493900
      7 C7          22.1840    45.4600    -4.2380 c3         1 389       0.042700
      8 C8          22.7340    44.1610    -4.8710 c3         1 389      -0.064700
      9 C9          22.5120    44.1730    -6.3790 c3         1 389      -0.090100
     10 C10         24.2020    43.9100    -4.5390 c3         1 389      -0.090100
     11 C11         22.3270    45.4280    -2.7200 c          1 389       0.600100
     12 O12         23.2840    45.9560    -2.1670 o          1 389      -0.623100
     13 N13         21.3900    44.7720    -2.0240 n          1 389      -0.393800
     14 C14         21.5560    44.6020    -0.5940 c5         1 389       0.027700
     15 C15         20.2690    43.8800    -0.1640 c5         1 389      -0.081400
     16 C16         19.8130    43.1570    -1.4270 c5         1 389      -0.094400
     17 C17         20.1810    44.1320    -2.5350 c5         1 389       0.108000
     18 C18         22.7940    43.7590    -0.3050 c          1 389       0.595100
     19 O19         23.1430    42.8440    -1.0330 o          1 389      -0.599100
     20 C20         24.6090    43.3890     1.2930 c3         1 389       0.111000
     21 N21         23.4150    44.0670     0.8430 ns         1 389      -0.500900
     22 C22         24.9860    43.8420     2.7040 c3         1 389       0.014900
     23 C23         26.2120    43.0880     3.1770 ca         1 389      -0.083800
     24 C24         27.4590    43.2960     2.5910 ca         1 389      -0.102250
     25 C25         28.5710    42.5870     3.0210 ca         1 389      -0.109500
     26 C26         28.4540    41.6590     4.0500 ca         1 389      -0.107000
     27 C27         27.2170    41.4470     4.6420 ca         1 389      -0.109500
     28 C28         26.1050    42.1570     4.2060 ca         1 389      -0.102250
     29 C29         25.1740    45.3400     2.8390 ca         1 389      -0.083800
     30 C30         25.6600    46.1330     1.8030 ca         1 389      -0.102250
     31 C31         25.8480    47.4980     1.9820 ca         1 389      -0.109500
     32 C32         25.5490    48.0930     3.1990 ca         1 389      -0.107000
     33 C33         25.0570    47.3120     4.2370 ca         1 389      -0.109500
     34 C34         24.8710    45.9500     4.0550 ca         1 389      -0.102250
     35 HN1         21.8760    49.6330    -7.1350 hn         1 389       0.403000
     36 HN1A        23.4070    50.1350    -7.2620 hn         1 389       0.403000
     37 H2          24.1820    48.5090    -5.7590 h1         1 389       0.067700
     38 H3          23.1470    49.3680    -3.6640 hc         1 389       0.045367
     39 H3A         23.4650    50.6850    -4.7890 hc         1 389       0.045367
     40 H3B         21.8210    50.0700    -4.5970 hc         1 389       0.045367
     41 HN6         23.7590    46.8410    -4.3490 hn         1 389       0.329500
     42 H7          21.1300    45.5500    -4.5110 h1         1 389       0.088700
     43 H8          22.1570    43.3300    -4.4550 hc         1 389       0.053700
     44 H9          23.1270    44.9330    -6.8630 hc         1 389       0.040367
     45 H9A         22.7850    43.2070    -6.8070 hc         1 389       0.040367
     46 H9B         21.4700    44.3690    -6.6350 hc         1 389       0.040367
     47 H10         24.8390    44.7310    -4.8750 hc         1 389       0.040367
     48 H10A        24.3660    43.7610    -3.4730 hc         1 389       0.040367
     49 H10B        24.5460    43.0100    -5.0510 hc         1 389       0.040367
     50 H14         21.6430    45.5710    -0.0950 h1         1 389       0.073700
     51 H15         20.4270    43.2120     0.6820 hc         1 389       0.057700
     52 H15A        19.5290    44.6220     0.1380 hc         1 389       0.057700
     53 H16         20.3590    42.2220    -1.5550 hc         1 389       0.064700
     54 H16A        18.7490    42.9270    -1.4210 hc         1 389       0.064700
     55 H17         19.3910    44.8740    -2.6870 h1         1 389       0.053200
     56 H17A        20.3580    43.6290    -3.4830 h1         1 389       0.053200
     57 H20         24.4340    42.3120     1.3110 h1         1 389       0.056700
     58 H20A        25.4340    43.5590     0.5930 h1         1 389       0.056700
     59 HN21        23.1320    44.9050     1.3280 hn         1 389       0.320500
     60 H22         24.1580    43.5580     3.3610 hc         1 389       0.059700
     61 H24         27.5720    44.0220     1.7940 ha         1 389       0.114250
     62 H25         29.5320    42.7590     2.5530 ha         1 389       0.114000
     63 H26         29.3210    41.1060     4.3860 ha         1 389       0.113000
     64 H27         27.1160    40.7300     5.4460 ha         1 389       0.114000
     65 H28         25.1420    41.9840     4.6720 ha         1 389       0.114250
     66 H30         25.8930    45.6970     0.8390 ha         1 389       0.114250
     67 H31         26.2250    48.0960     1.1620 ha         1 389       0.114000
     68 H32         25.6910    49.1570     3.3360 ha         1 389       0.113000
     69 H33         24.8110    47.7650     5.1900 ha         1 389       0.114000
     70 H34         24.4820    45.3510     4.8710 ha         1 389       0.114250
@<TRIPOS>BOND
     1     1     2 1   
     2     1    35 1   
     3     1    36 1   
     4     2     3 1   
     5     2     4 1   
     6     2    37 1   
     7     3    38 1   
     8     3    39 1   
     9     3    40 1   
    10     4     5 2   
    11     4     6 1   
    12     6     7 1   
    13     6    41 1   
    14     7     8 1   
    15     7    11 1   
    16     7    42 1   
    17     8     9 1   
    18     8    10 1   
    19     8    43 1   
    20     9    44 1   
    21     9    45 1   
    22     9    46 1   
    23    10    47 1   
    24    10    48 1   
    25    10    49 1   
    26    11    12 2   
    27    11    13 1   
    28    13    14 1   
    29    13    17 1   
    30    14    15 1   
    31    14    18 1   
    32    14    50 1   
    33    15    16 1   
    34    15    51 1   
    35    15    52 1   
    36    16    17 1   
    37    16    53 1   
    38    16    54 1   
    39    17    55 1   
    40    17    56 1   
    41    18    19 2   
    42    18    21 1   
    43    20    21 1   
    44    20    22 1   
    45    20    57 1   
    46    20    58 1   
    47    21    59 1   
    48    22    23 1   
    49    22    29 1   
    50    22    60 1   
    51    23    24 ar  
    52    23    28 ar  
    53    24    25 ar  
    54    24    61 1   
    55    25    26 ar  
    56    25    62 1   
    57    26    27 ar  
    58    26    63 1   
    59    27    28 ar  
    60    27    64 1   
    61    28    65 1   
    62    29    30 ar  
    63    29    34 ar  
    64    30    31 ar  
    65    30    66 1   
    66    31    32 ar  
    67    31    67 1   
    68    32    33 ar  
    69    32    68 1   
    70    33    34 ar  
    71    33    69 1   
    72    34    70 1   
@<TRIPOS>SUBSTRUCTURE
     1 389         1 TEMP              0 ****  ****    0 ROOT
