@<TRIPOS>MOLECULE
389
   70    72     1     0     0
SMALL
No Charge or Current Charge


@<TRIPOS>ATOM
      1 N1          21.8930    47.0960    -8.9570 n8         1 389      -0.977200
      2 C2          22.3130    47.7330    -7.6660 c3         1 389       0.081500
      3 C3          22.1210    49.2610    -7.7730 c3         1 389      -0.133100
      4 C4          21.6250    47.1620    -6.3700 c          1 389       0.611100
      5 O5          20.4120    47.1810    -6.1970 o          1 389      -0.604100
      6 N6          22.4880    46.6280    -5.4340 ns         1 389      -0.493900
      7 C7          22.0880    46.0210    -4.1410 c3         1 389       0.042700
      8 C8          21.9440    44.4670    -4.2450 c3         1 389      -0.064700
      9 C9          20.7080    44.0420    -5.0710 c3         1 389      -0.090100
     10 C10         23.2280    43.7730    -4.7640 c3         1 389      -0.090100
     11 C11         23.0890    46.4400    -3.0150 c          1 389       0.600100
     12 O12         24.2060    46.8750    -3.2850 o          1 389      -0.623100
     13 N13         22.7120    46.2590    -1.6670 n          1 389      -0.393800
     14 C14         23.6700    46.4770    -0.5450 c5         1 389       0.027700
     15 C15         22.7000    46.6430     0.6690 c5         1 389      -0.081400
     16 C16         21.5180    45.7240     0.2770 c5         1 389      -0.094400
     17 C17         21.3110    46.1110    -1.2080 c5         1 389       0.108000
     18 C18         24.6280    45.2660    -0.3040 c          1 389       0.595100
     19 O19         24.5940    44.1690    -0.8480 o          1 389      -0.599100
     20 C20         26.5300    44.6850     1.2480 c3         1 389       0.111000
     21 N21         25.5800    45.6190     0.6310 ns         1 389      -0.500900
     22 C22         25.8320    43.5930     2.1080 c3         1 389       0.014900
     23 C23         26.8140    42.7320     2.9110 ca         1 389      -0.083800
     24 C24         27.8320    43.3100     3.7030 ca         1 389      -0.102250
     25 C25         28.7150    42.4970     4.4350 ca         1 389      -0.109500
     26 C26         28.5890    41.0990     4.3880 ca         1 389      -0.107000
     27 C27         27.5770    40.5150     3.6110 ca         1 389      -0.109500
     28 C28         26.6930    41.3270     2.8790 ca         1 389      -0.102250
     29 C29         24.7280    44.1590     3.0100 ca         1 389      -0.083800
     30 C30         24.9690    45.2620     3.8580 ca         1 389      -0.102250
     31 C31         23.9380    45.7850     4.6570 ca         1 389      -0.109500
     32 C32         22.6560    45.2120     4.6170 ca         1 389      -0.107000
     33 C33         22.4080    44.1120     3.7800 ca         1 389      -0.109500
     34 C34         23.4390    43.5880     2.9820 ca         1 389      -0.102250
     35 HN1         20.8800    47.2240    -9.0790 hn         1 389       0.403000
     36 HN1A        22.2990    47.6180    -9.7440 hn         1 389       0.403000
     37 H2          23.3910    47.5510    -7.5560 h1         1 389       0.067700
     38 H3          22.4970    49.7550    -6.8690 hc         1 389       0.045367
     39 H3A         22.6700    49.6680    -8.6310 hc         1 389       0.045367
     40 H3B         21.0610    49.5180    -7.8860 hc         1 389       0.045367
     41 HN6         23.4790    46.6800    -5.6440 hn         1 389       0.329500
     42 H7          21.1160    46.4420    -3.8510 h1         1 389       0.088700
     43 H8          21.7780    44.0800    -3.2330 hc         1 389       0.053700
     44 H9          20.8230    44.3220    -6.1250 hc         1 389       0.040367
     45 H9A         20.5660    42.9560    -5.0230 hc         1 389       0.040367
     46 H9B         19.7990    44.5180    -4.6840 hc         1 389       0.040367
     47 H10         23.4480    44.0650    -5.7980 hc         1 389       0.040367
     48 H10A        24.0930    44.0290    -4.1410 hc         1 389       0.040367
     49 H10B        23.1110    42.6830    -4.7390 hc         1 389       0.040367
     50 H14         24.2800    47.3780    -0.6950 h1         1 389       0.073700
     51 H15         23.1460    46.3710     1.6310 hc         1 389       0.057700
     52 H15A        22.3670    47.6840     0.7580 hc         1 389       0.057700
     53 H16         21.7830    44.6650     0.3800 hc         1 389       0.064700
     54 H16A        20.6230    45.8990     0.8850 hc         1 389       0.064700
     55 H17         20.7710    47.0620    -1.3050 h1         1 389       0.053200
     56 H17A        20.7520    45.3380    -1.7490 h1         1 389       0.053200
     57 H20         27.1270    44.2050     0.4610 h1         1 389       0.056700
     58 H20A        27.2140    45.2750     1.8700 h1         1 389       0.056700
     59 HN21        25.5240    46.5580     1.0050 hn         1 389       0.320500
     60 H22         25.3480    42.9320     1.3790 hc         1 389       0.059700
     61 H24         27.9430    44.3890     3.7630 ha         1 389       0.114250
     62 H25         29.4950    42.9520     5.0410 ha         1 389       0.114000
     63 H26         29.2730    40.4710     4.9550 ha         1 389       0.113000
     64 H27         27.4750    39.4320     3.5760 ha         1 389       0.114000
     65 H28         25.9110    40.8580     2.2850 ha         1 389       0.114250
     66 H30         25.9530    45.7210     3.8980 ha         1 389       0.114250
     67 H31         24.1320    46.6360     5.3060 ha         1 389       0.114000
     68 H32         21.8580    45.6180     5.2340 ha         1 389       0.113000
     69 H33         21.4160    43.6670     3.7470 ha         1 389       0.114000
     70 H34         23.2300    42.7390     2.3350 ha         1 389       0.114250
@<TRIPOS>BOND
     1     1     2 1   
     2     1    35 1   
     3     1    36 1   
     4     2     3 1   
     5     2     4 1   
     6     2    37 1   
     7     3    38 1   
     8     3    39 1   
     9     3    40 1   
    10     4     5 2   
    11     4     6 1   
    12     6     7 1   
    13     6    41 1   
    14     7     8 1   
    15     7    11 1   
    16     7    42 1   
    17     8     9 1   
    18     8    10 1   
    19     8    43 1   
    20     9    44 1   
    21     9    45 1   
    22     9    46 1   
    23    10    47 1   
    24    10    48 1   
    25    10    49 1   
    26    11    12 2   
    27    11    13 1   
    28    13    14 1   
    29    13    17 1   
    30    14    15 1   
    31    14    18 1   
    32    14    50 1   
    33    15    16 1   
    34    15    51 1   
    35    15    52 1   
    36    16    17 1   
    37    16    53 1   
    38    16    54 1   
    39    17    55 1   
    40    17    56 1   
    41    18    19 2   
    42    18    21 1   
    43    20    21 1   
    44    20    22 1   
    45    20    57 1   
    46    20    58 1   
    47    21    59 1   
    48    22    23 1   
    49    22    29 1   
    50    22    60 1   
    51    23    24 ar  
    52    23    28 ar  
    53    24    25 ar  
    54    24    61 1   
    55    25    26 ar  
    56    25    62 1   
    57    26    27 ar  
    58    26    63 1   
    59    27    28 ar  
    60    27    64 1   
    61    28    65 1   
    62    29    30 ar  
    63    29    34 ar  
    64    30    31 ar  
    65    30    66 1   
    66    31    32 ar  
    67    31    67 1   
    68    32    33 ar  
    69    32    68 1   
    70    33    34 ar  
    71    33    69 1   
    72    34    70 1   
@<TRIPOS>SUBSTRUCTURE
     1 389         1 TEMP              0 ****  ****    0 ROOT
