@<TRIPOS>MOLECULE
38A
   33    33     1     0     0
SMALL
No Charge or Current Charge


@<TRIPOS>ATOM
      1 CAK          1.3830     2.6100     0.4000 c3         1 38A       0.208900
      2 CAC          0.6590     1.2550     0.2850 ca         1 38A      -0.100967
      3 CAB          1.4090     0.0470     0.2890 ca         1 38A      -0.015967
      4 CAG          2.9490     0.0950     0.3020 c3         1 38A      -0.057467
      5 CAD         -0.7600     1.2100     0.2190 ca         1 38A      -0.015967
      6 CAI         -1.5700     2.5190     0.1550 c3         1 38A      -0.057467
      7 CAE         -1.4320    -0.0430     0.2170 ca         1 38A      -0.100967
      8 CAL         -2.9710    -0.0910     0.2580 c3         1 38A       0.208900
      9 CAF         -0.6820    -1.2510     0.2210 ca         1 38A      -0.015967
     10 CAH         -1.4080    -2.6080     0.1610 c3         1 38A      -0.057467
     11 CAA          0.7370    -1.2060     0.2880 ca         1 38A      -0.100967
     12 CAJ          1.5440    -2.5130     0.4050 c3         1 38A       0.208900
     13 H1           0.7610     3.3260     0.9520 h1         1 38A       0.020700
     14 H2           2.2940     2.5040     1.0020 h1         1 38A       0.020700
     15 H4           3.3330     0.1090     1.3290 hc         1 38A       0.046367
     16 H5           3.4020    -0.7560    -0.2160 hc         1 38A       0.046367
     17 H6           3.3470     0.9730    -0.2180 hc         1 38A       0.046367
     18 H7          -2.5030     2.4110    -0.4080 hc         1 38A       0.046367
     19 H8          -1.8230     2.8740     1.1610 hc         1 38A       0.046367
     20 H9          -1.0330     3.3220    -0.3600 hc         1 38A       0.046367
     21 H10         -3.3070    -0.9720     0.8200 h1         1 38A       0.020700
     22 H11         -3.3620     0.7670     0.8180 h1         1 38A       0.020700
     23 H13         -2.3460    -2.5600    -0.4030 hc         1 38A       0.046367
     24 H14         -0.8220    -3.3770    -0.3530 hc         1 38A       0.046367
     25 H15         -1.6380    -2.9760     1.1680 hc         1 38A       0.046367
     26 H16          2.4470    -2.3480     1.0070 h1         1 38A       0.020700
     27 H17          0.9690    -3.2650     0.9590 h1         1 38A       0.020700
     28 O1           1.8960    -3.0120    -0.8910 oh         1 38A      -0.651000
     29 O2          -3.5150    -0.1100    -1.0670 oh         1 38A      -0.651000
     30 O4           1.7020     3.1270    -0.8970 oh         1 38A      -0.651000
     31 H3           2.4050    -3.8390    -0.7460 ho         1 38A       0.436000
     32 H12         -4.4910    -0.1400    -0.9710 ho         1 38A       0.436000
     33 H18          2.1580     3.9860    -0.7550 ho         1 38A       0.436000
@<TRIPOS>BOND
     1     1     2 1   
     2     1    13 1   
     3     1    14 1   
     4     1    30 1   
     5     2     3 ar  
     6     2     5 ar  
     7     3     4 1   
     8     3    11 ar  
     9     4    15 1   
    10     4    16 1   
    11     4    17 1   
    12     5     6 1   
    13     5     7 ar  
    14     6    18 1   
    15     6    19 1   
    16     6    20 1   
    17     7     8 1   
    18     7     9 ar  
    19     8    21 1   
    20     8    22 1   
    21     8    29 1   
    22     9    10 1   
    23     9    11 ar  
    24    10    23 1   
    25    10    24 1   
    26    10    25 1   
    27    11    12 1   
    28    12    26 1   
    29    12    27 1   
    30    12    28 1   
    31    28    31 1   
    32    29    32 1   
    33    30    33 1   
@<TRIPOS>SUBSTRUCTURE
     1 38A         1 TEMP              0 ****  ****    0 ROOT
