@<TRIPOS>MOLECULE
38A
   33    33     1     0     0
SMALL
abcg2


@<TRIPOS>ATOM
      1 CAK          1.3530     2.5560     0.4020 c3         1 38A       0.208900
      2 CAC          0.6430     1.2320     0.3260 ca         1 38A      -0.100967
      3 CAB          1.3830     0.0440     0.3210 ca         1 38A      -0.015967
      4 CAG          2.8900     0.0910     0.3070 c3         1 38A      -0.057467
      5 CAD         -0.7540     1.1910     0.2520 ca         1 38A      -0.015967
      6 CAI         -1.5430     2.4740     0.1600 c3         1 38A      -0.057467
      7 CAE         -1.4140    -0.0430     0.2620 ca         1 38A      -0.100967
      8 CAL         -2.9180    -0.0880     0.2750 c3         1 38A       0.208900
      9 CAF         -0.6790    -1.2340     0.2530 ca         1 38A      -0.015967
     10 CAH         -1.3870    -2.5630     0.1620 c3         1 38A      -0.057467
     11 CAA          0.7170    -1.1870     0.3280 ca         1 38A      -0.100967
     12 CAJ          1.5100    -2.4640     0.4100 c3         1 38A       0.208900
     13 H1           0.7280     3.2850     0.9260 h1         1 38A       0.020700
     14 H2           2.2610     2.4560     1.0060 h1         1 38A       0.020700
     15 H4           3.3040     0.1190     1.3180 hc         1 38A       0.046367
     16 H5           3.3160    -0.7730    -0.1970 hc         1 38A       0.046367
     17 H6           3.2600     0.9690    -0.2190 hc         1 38A       0.046367
     18 H7          -2.4720     2.3400    -0.3890 hc         1 38A       0.046367
     19 H8          -1.8010     2.8670     1.1470 hc         1 38A       0.046367
     20 H9          -0.9870     3.2490    -0.3610 hc         1 38A       0.046367
     21 H10         -3.2590    -0.9720     0.8250 h1         1 38A       0.020700
     22 H11         -3.3110     0.7730     0.8260 h1         1 38A       0.020700
     23 H13         -2.3280    -2.4840    -0.3790 hc         1 38A       0.046367
     24 H14         -0.7880    -3.3000    -0.3680 hc         1 38A       0.046367
     25 H15         -1.6110    -2.9750     1.1490 hc         1 38A       0.046367
     26 H16          2.3970    -2.3080     1.0330 h1         1 38A       0.020700
     27 H17          0.9240    -3.2360     0.9200 h1         1 38A       0.020700
     28 O1           1.8670    -2.8730    -0.8980 oh         1 38A      -0.651000
     29 O2          -3.3940    -0.1020    -1.0600 oh         1 38A      -0.651000
     30 O4           1.6580     2.9930    -0.9110 oh         1 38A      -0.651000
     31 H3           2.3930    -3.6750    -0.8230 ho         1 38A       0.436000
     32 H12         -4.3550    -0.1250    -1.0280 ho         1 38A       0.436000
     33 H18          2.1250     3.8310    -0.8420 ho         1 38A       0.436000
@<TRIPOS>BOND
     1     1     2 1   
     2     1    13 1   
     3     1    14 1   
     4     1    30 1   
     5     2     3 ar  
     6     2     5 ar  
     7     3     4 1   
     8     3    11 ar  
     9     4    15 1   
    10     4    16 1   
    11     4    17 1   
    12     5     6 1   
    13     5     7 ar  
    14     6    18 1   
    15     6    19 1   
    16     6    20 1   
    17     7     8 1   
    18     7     9 ar  
    19     8    21 1   
    20     8    22 1   
    21     8    29 1   
    22     9    10 1   
    23     9    11 ar  
    24    10    23 1   
    25    10    24 1   
    26    10    25 1   
    27    11    12 1   
    28    12    26 1   
    29    12    27 1   
    30    12    28 1   
    31    28    31 1   
    32    29    32 1   
    33    30    33 1   
@<TRIPOS>SUBSTRUCTURE
     1 38A         1 TEMP              0 ****  ****    0 ROOT
