@<TRIPOS>MOLECULE
38B
   30    32     1     0     0
SMALL
abcg2


@<TRIPOS>ATOM
      1 CAA          5.2140    -0.1060    -0.4620 c3         1 38B      -0.149400
      2 CAB          3.7450    -0.0160    -0.2420 cc         1 38B       0.539900
      3 NAC          3.2230     1.0490     0.2980 nd         1 38B      -0.699700
      4 NAF          3.0070    -1.0850    -0.6260 ns         1 38B      -0.427400
      5 CAG          1.6180    -1.2240    -0.5140 c          1 38B       0.617600
      6 OAK          1.0550    -2.2230    -0.9130 o          1 38B      -0.518000
      7 CAH          1.0580    -0.0600     0.1030 cc         1 38B      -0.359600
      8 CAD          1.8970     0.9710     0.4370 cd         1 38B       0.441000
      9 OAE          1.1960     1.9700     0.9470 os         1 38B      -0.046700
     10 NAJ         -0.1370     1.6190     0.9630 nd         1 38B      -0.336300
     11 CAI         -0.2330     0.4210     0.4640 cc         1 38B       0.414500
     12 CAL         -1.5180    -0.2800     0.3650 ca         1 38B      -0.189500
     13 CAM         -1.6050    -1.5880     0.8320 ca         1 38B      -0.029000
     14 CAN         -2.7960    -2.2930     0.7720 ca         1 38B      -0.154000
     15 CAQ         -3.9120    -1.6830     0.2220 ca         1 38B      -0.052000
     16 CAP         -3.8480    -0.3830    -0.2610 ca         1 38B      -0.210000
     17 CAO         -2.6540     0.3320    -0.1900 ca         1 38B       0.181100
     18 OAR         -2.5070     1.5850    -0.6420 os         1 38B      -0.328100
     19 CAS         -3.6070     2.2200    -1.2680 c3         1 38B       0.148900
     20 H1           5.4340    -0.2700    -1.5170 hc         1 38B       0.074033
     21 H2           5.6980     0.8090    -0.1350 hc         1 38B       0.074033
     22 H3           5.6290    -0.9460     0.0960 hc         1 38B       0.074033
     23 H4           3.4960    -1.8670    -1.0460 hn         1 38B       0.331500
     24 H5          -0.7290    -2.0530     1.2640 ha         1 38B       0.124000
     25 H6          -2.8500    -3.3040     1.1510 ha         1 38B       0.120000
     26 H7          -4.8510    -2.2170     0.1650 ha         1 38B       0.112000
     27 H8          -4.7360     0.0600    -0.6880 ha         1 38B       0.119000
     28 H9          -3.9350     1.6800    -2.1590 h1         1 38B       0.043033
     29 H10         -4.4540     2.3320    -0.5870 h1         1 38B       0.043033
     30 H11         -3.2610     3.2080    -1.5620 h1         1 38B       0.043033
@<TRIPOS>BOND
     1     1     2 1   
     2     1    20 1   
     3     1    21 1   
     4     1    22 1   
     5     2     3 2   
     6     2     4 1   
     7     3     8 1   
     8     4     5 1   
     9     4    23 1   
    10     5     6 2   
    11     5     7 1   
    12     7     8 2   
    13     7    11 1   
    14     8     9 1   
    15     9    10 1   
    16    10    11 2   
    17    11    12 1   
    18    12    13 ar  
    19    12    17 ar  
    20    13    14 ar  
    21    13    24 1   
    22    14    15 ar  
    23    14    25 1   
    24    15    16 ar  
    25    15    26 1   
    26    16    17 ar  
    27    16    27 1   
    28    17    18 1   
    29    18    19 1   
    30    19    28 1   
    31    19    29 1   
    32    19    30 1   
@<TRIPOS>SUBSTRUCTURE
     1 38B         1 TEMP              0 ****  ****    0 ROOT
