@<TRIPOS>MOLECULE
38B
   30    32     1     0     0
SMALL
No Charge or Current Charge


@<TRIPOS>ATOM
      1 CAA          5.2550    -0.3330    -0.2620 c3         1 38B      -0.149400
      2 CAB          3.7830    -0.0880    -0.1470 cc         1 38B       0.539900
      3 NAC          3.3080     1.0830     0.2720 nd         1 38B      -0.699700
      4 NAF          3.0090    -1.1510    -0.5310 ns         1 38B      -0.427400
      5 CAG          1.6570    -1.1630    -0.5220 c          1 38B       0.617600
      6 OAK          1.0160    -2.1100    -0.9390 o          1 38B      -0.518000
      7 CAH          1.1340     0.0830    -0.0070 cc         1 38B      -0.359600
      8 CAD          1.9200     1.1160     0.3210 cd         1 38B       0.441000
      9 OAE          1.1980     2.2030     0.6990 os         1 38B      -0.046700
     10 NAJ         -0.1920     1.8250     0.6160 nd         1 38B      -0.336300
     11 CAI         -0.1850     0.5630     0.1830 cc         1 38B       0.414500
     12 CAL         -1.4280    -0.2300     0.1410 ca         1 38B      -0.189500
     13 CAM         -1.4290    -1.5620     0.6150 ca         1 38B      -0.029000
     14 CAN         -2.6100    -2.3180     0.6510 ca         1 38B      -0.154000
     15 CAQ         -3.8210    -1.7530     0.2340 ca         1 38B      -0.052000
     16 CAP         -3.8500    -0.4230    -0.2080 ca         1 38B      -0.210000
     17 CAO         -2.6660     0.3500    -0.2470 ca         1 38B       0.181100
     18 OAR         -2.6820     1.6490    -0.7210 os         1 38B      -0.328100
     19 CAS         -3.8870     2.3120    -1.1410 c3         1 38B       0.148900
     20 H1           5.5350    -0.5390    -1.3020 hc         1 38B       0.074033
     21 H2           5.8280     0.5390     0.0720 hc         1 38B       0.074033
     22 H3           5.5570    -1.1880     0.3530 hc         1 38B       0.074033
     23 H4           3.4590    -1.9890    -0.8690 hn         1 38B       0.331500
     24 H5          -0.5200    -2.0110     1.0060 ha         1 38B       0.124000
     25 H6          -2.5880    -3.3410     1.0200 ha         1 38B       0.120000
     26 H7          -4.7360    -2.3410     0.2640 ha         1 38B       0.112000
     27 H8          -4.8050    -0.0110    -0.5200 ha         1 38B       0.119000
     28 H9          -4.3500     1.7840    -1.9840 h1         1 38B       0.043033
     29 H10         -4.6100     2.3670    -0.3170 h1         1 38B       0.043033
     30 H11         -3.6640     3.3360    -1.4640 h1         1 38B       0.043033
@<TRIPOS>BOND
     1     1     2 1   
     2     1    20 1   
     3     1    21 1   
     4     1    22 1   
     5     2     3 2   
     6     2     4 1   
     7     3     8 1   
     8     4     5 1   
     9     4    23 1   
    10     5     6 2   
    11     5     7 1   
    12     7     8 2   
    13     7    11 1   
    14     8     9 1   
    15     9    10 1   
    16    10    11 2   
    17    11    12 1   
    18    12    13 ar  
    19    12    17 ar  
    20    13    14 ar  
    21    13    24 1   
    22    14    15 ar  
    23    14    25 1   
    24    15    16 ar  
    25    15    26 1   
    26    16    17 ar  
    27    16    27 1   
    28    17    18 1   
    29    18    19 1   
    30    19    28 1   
    31    19    29 1   
    32    19    30 1   
@<TRIPOS>SUBSTRUCTURE
     1 38B         1 TEMP              0 ****  ****    0 ROOT
