@<TRIPOS>MOLECULE
38C
   40    42     1     0     0
SMALL
No Charge or Current Charge


@<TRIPOS>ATOM
      1 FAJ         -5.8040     2.1720     1.2230 f          1 38C      -0.124667
      2 CAI         -5.5940     1.6760    -0.0170 c3         1 38C       0.352300
      3 FAK         -6.7930     1.2590    -0.4840 f          1 38C      -0.124667
      4 FAL         -5.2160     2.7140    -0.7990 f          1 38C      -0.124667
      5 CAH         -4.5450     0.5570     0.0010 ca         1 38C      -0.194300
      6 CAG         -4.9270    -0.7980     0.0560 ca         1 38C      -0.130000
      7 CAF         -3.9540    -1.8110     0.0820 ca         1 38C      -0.049000
      8 CAM         -3.1700     0.8740    -0.0130 ca         1 38C      -0.061000
      9 CAN         -2.1780    -0.1270     0.0120 ca         1 38C       0.283000
     10 CAE         -2.5810    -1.5040     0.0590 ca         1 38C       0.181000
     11 NAD         -1.6710    -2.5130     0.0850 nb         1 38C      -0.605000
     12 NAO         -0.8670     0.2360    -0.0060 nb         1 38C      -0.818000
     13 CAP          0.0380    -0.7650     0.0200 ca         1 38C       0.604900
     14 CAC         -0.3390    -2.1530     0.0640 ca         1 38C       0.244500
     15 CAB          0.7460    -3.2490     0.0880 c          1 38C       0.621500
     16 OBA          0.4020    -4.4250     0.1660 o          1 38C      -0.682500
     17 OAA          1.9310    -2.9320     0.0240 o          1 38C      -0.682500
     18 NAQ          1.3430    -0.2920    -0.0000 nu         1 38C      -0.927100
     19 CAR          1.8210     1.0690    -0.2480 c3         1 38C       0.289100
     20 CAS          3.3420     1.0830    -0.2330 ca         1 38C      -0.127300
     21 CAZ          4.0670     0.9060    -1.4270 ca         1 38C      -0.053000
     22 CAY          5.4720     0.9200    -1.4090 ca         1 38C      -0.176000
     23 CAV          6.1670     1.1090    -0.2050 ca         1 38C       0.134100
     24 OAW          7.5470     1.1130    -0.2500 os         1 38C      -0.347100
     25 CAX          8.3520     1.2990     0.9280 c3         1 38C       0.152900
     26 CAU          5.4440     1.2850     0.9950 ca         1 38C      -0.176000
     27 CAT          4.0380     1.2710     0.9770 ca         1 38C      -0.053000
     28 H1          -5.9780    -1.0780     0.0820 ha         1 38C       0.114000
     29 H2          -4.2670    -2.8510     0.1210 ha         1 38C       0.128000
     30 H3          -2.8550     1.9140    -0.0420 ha         1 38C       0.126000
     31 H5           1.4620     1.4260    -1.2240 h1         1 38C       0.044700
     32 H6           3.5410     0.7560    -2.3680 ha         1 38C       0.117000
     33 H7           6.0250     0.7820    -2.3350 ha         1 38C       0.114500
     34 H8           8.1570     0.5070     1.6620 h1         1 38C       0.035367
     35 H9           9.4170     1.2690     0.6690 h1         1 38C       0.035367
     36 H10          8.1430     2.2710     1.3940 h1         1 38C       0.035367
     37 H11          5.9500     1.4330     1.9440 ha         1 38C       0.114500
     38 H12          3.4870     1.4060     1.9060 ha         1 38C       0.117000
     39 H13          2.0350    -1.0520    -0.0130 hn         1 38C       0.570000
     40 H14          1.4400     1.7550     0.5210 h1         1 38C       0.044700
@<TRIPOS>BOND
     1     1     2 1   
     2     2     3 1   
     3     2     4 1   
     4     2     5 1   
     5     5     6 ar  
     6     5     8 ar  
     7     6     7 ar  
     8     6    28 1   
     9     7    10 ar  
    10     7    29 1   
    11     8     9 ar  
    12     8    30 1   
    13     9    10 ar  
    14     9    12 ar  
    15    10    11 ar  
    16    11    14 ar  
    17    12    13 ar  
    18    13    14 ar  
    19    13    18 1   
    20    14    15 1   
    21    15    16 1   
    22    15    17 1   
    23    18    19 1   
    24    18    39 1   
    25    19    20 1   
    26    19    31 1   
    27    19    40 1   
    28    20    21 ar  
    29    20    27 ar  
    30    21    22 ar  
    31    21    32 1   
    32    22    23 ar  
    33    22    33 1   
    34    23    24 1   
    35    23    26 ar  
    36    24    25 1   
    37    25    34 1   
    38    25    35 1   
    39    25    36 1   
    40    26    27 ar  
    41    26    37 1   
    42    27    38 1   
@<TRIPOS>SUBSTRUCTURE
     1 38C         1 TEMP              0 ****  ****    0 ROOT
