@<TRIPOS>MOLECULE
38C
   40    42     1     0     0
SMALL
bcc


@<TRIPOS>ATOM
      1 FAJ         -5.4270     2.4210     0.9200 f          1 38C      -0.245967
      2 CAI         -5.5210     1.5970    -0.1350 c3         1 38C       0.716200
      3 FAK         -6.7660     1.1150    -0.1420 f          1 38C      -0.245967
      4 FAL         -5.3940     2.3650    -1.2270 f          1 38C      -0.245967
      5 CAH         -4.4800     0.5210    -0.0920 ca         1 38C      -0.194300
      6 CAG         -4.8450    -0.8370    -0.0950 ca         1 38C      -0.148000
      7 CAF         -3.8660    -1.7990    -0.0580 ca         1 38C      -0.132300
      8 CAM         -3.1580     0.9000    -0.0530 ca         1 38C      -0.144300
      9 CAN         -2.1440    -0.0740    -0.0150 ca         1 38C       0.349300
     10 CAE         -2.5120    -1.4360    -0.0170 ca         1 38C       0.246300
     11 NAD         -1.5550    -2.4020     0.0240 nb         1 38C      -0.605000
     12 NAO         -0.8490     0.3010     0.0250 nb         1 38C      -0.818000
     13 CAP          0.0640    -0.6460     0.0540 ca         1 38C       0.604900
     14 CAC         -0.3090    -2.0620     0.0600 ca         1 38C       0.244500
     15 CAB          0.7230    -3.2020     0.1130 c          1 38C       0.832100
     16 OBA          0.2730    -4.3490     0.1290 o          1 38C      -0.787800
     17 OAA          1.9310    -2.8650     0.1360 o          1 38C      -0.787800
     18 NAQ          1.3520    -0.3010     0.0820 nu         1 38C      -0.871900
     19 CAR          1.8040     1.0720     0.0920 c3         1 38C       0.289100
     20 CAS          3.3020     1.1090    -0.0160 ca         1 38C      -0.127300
     21 CAZ          3.9300     0.8970    -1.2440 ca         1 38C      -0.071000
     22 CAY          5.3070     0.8870    -1.3530 ca         1 38C      -0.194000
     23 CAV          6.1020     1.0870    -0.2210 ca         1 38C       0.134100
     24 OAW          7.4350     1.0570    -0.4150 os         1 38C      -0.323900
     25 CAX          8.2820     1.2360     0.7030 c3         1 38C       0.129700
     26 CAU          5.4910     1.3020     1.0110 ca         1 38C      -0.194000
     27 CAT          4.1030     1.3080     1.0980 ca         1 38C      -0.071000
     28 H1          -5.8840    -1.1350    -0.1270 ha         1 38C       0.132000
     29 H2          -4.1240    -2.8500    -0.0590 ha         1 38C       0.146000
     30 H3          -2.8620     1.9420    -0.0500 ha         1 38C       0.144000
     31 H5           1.3480     1.6170    -0.7390 h1         1 38C       0.044700
     32 H6           3.3310     0.7390    -2.1340 ha         1 38C       0.135000
     33 H7           5.7790     0.7240    -2.3140 ha         1 38C       0.132500
     34 H8           8.1200     0.4680     1.4640 h1         1 38C       0.035367
     35 H9           9.3010     1.1550     0.3340 h1         1 38C       0.035367
     36 H10          8.1520     2.2190     1.1620 h1         1 38C       0.035367
     37 H11          6.0710     1.4640     1.9090 ha         1 38C       0.132500
     38 H12          3.6430     1.4760     2.0650 ha         1 38C       0.135000
     39 H13          2.0020    -1.0850     0.1200 hn         1 38C       0.514800
     40 H14          1.4780     1.5760     1.0080 h1         1 38C       0.044700
@<TRIPOS>BOND
     1     1     2 1   
     2     2     3 1   
     3     2     4 1   
     4     2     5 1   
     5     5     6 ar  
     6     5     8 ar  
     7     6     7 ar  
     8     6    28 1   
     9     7    10 ar  
    10     7    29 1   
    11     8     9 ar  
    12     8    30 1   
    13     9    10 ar  
    14     9    12 ar  
    15    10    11 ar  
    16    11    14 ar  
    17    12    13 ar  
    18    13    14 ar  
    19    13    18 1   
    20    14    15 1   
    21    15    16 1   
    22    15    17 1   
    23    18    19 1   
    24    18    39 1   
    25    19    20 1   
    26    19    31 1   
    27    19    40 1   
    28    20    21 ar  
    29    20    27 ar  
    30    21    22 ar  
    31    21    32 1   
    32    22    23 ar  
    33    22    33 1   
    34    23    24 1   
    35    23    26 ar  
    36    24    25 1   
    37    25    34 1   
    38    25    35 1   
    39    25    36 1   
    40    26    27 ar  
    41    26    37 1   
    42    27    38 1   
@<TRIPOS>SUBSTRUCTURE
     1 38C         1 TEMP              0 ****  ****    0 ROOT
