@<TRIPOS>MOLECULE
38D
   31    32     1     0     0
SMALL
abcg2


@<TRIPOS>ATOM
      1 N12         -9.1110   -15.6980    28.4570 n2         1 38D      -0.397300
      2 C13        -10.0490   -14.9180    28.8430 ce         1 38D       0.362800
      3 C15        -11.0680   -16.6930    30.2650 ca         1 38D      -0.063000
      4 C17        -13.0060   -16.2650    31.5910 ca         1 38D       0.136000
      5 C20        -12.0800   -14.5240    30.2460 ca         1 38D       0.141000
      6 C01         -6.0100   -13.8270    26.3220 ca         1 38D      -0.129000
      7 C02         -5.0900   -13.2060    25.4960 ca         1 38D       0.032100
      8 O03         -4.8130   -11.8690    25.5230 oh         1 38D      -0.558100
      9 C04         -4.3610   -13.9570    24.5620 ca         1 38D       0.148100
     10 C05         -4.5590   -15.3290    24.4800 ca         1 38D      -0.130000
     11 C06         -5.4730   -15.9520    25.3160 ca         1 38D      -0.042000
     12 O07         -3.4580   -13.3590    23.7440 oh         1 38D      -0.527100
     13 C08         -6.2140   -15.2100    26.2360 ca         1 38D      -0.162600
     14 O10         -7.0560   -17.1320    27.3670 o          1 38D      -0.543100
     15 N11         -8.2110   -15.1820    27.5890 ns         1 38D      -0.283900
     16 C14        -11.0670   -15.3750    29.7840 ca         1 38D      -0.112900
     17 C16        -12.0200   -17.1450    31.1580 ca         1 38D      -0.104000
     18 C19        -13.0490   -14.9540    31.1440 ca         1 38D      -0.102000
     19 CL2        -12.1750   -12.8610    29.7120 cl         1 38D      -0.205000
     20 H1         -10.1120   -13.8910    28.4850 h4         1 38D      -0.001200
     21 H2         -10.2960   -17.3660    29.9210 ha         1 38D       0.149000
     22 H3          -6.5300   -13.2200    27.0540 ha         1 38D       0.111000
     23 H4          -5.3610   -11.4180    26.1800 ho         1 38D       0.476000
     24 H5          -3.9890   -15.8960    23.7550 ha         1 38D       0.141000
     25 H6          -5.6250   -17.0200    25.2540 ha         1 38D       0.144000
     26 H7          -3.4490   -12.4060    23.9200 ho         1 38D       0.486000
     27 H8          -8.3360   -14.2310    27.2610 hn         1 38D       0.306500
     28 H9         -12.0010   -18.1650    31.5160 ha         1 38D       0.139000
     29 H10        -13.8190   -14.2770    31.4840 ha         1 38D       0.146000
     30 CL1        -14.2160   -16.8160    32.7200 cl         1 38D      -0.194000
     31 C09         -7.1740   -15.9400    27.1070 c          1 38D       0.637700
@<TRIPOS>BOND
     1     1     2 2   
     2     1    15 1   
     3     2    16 1   
     4     2    20 1   
     5     3    16 ar  
     6     3    17 ar  
     7     3    21 1   
     8     4    17 ar  
     9     4    18 ar  
    10     4    30 1   
    11     5    16 ar  
    12     5    18 ar  
    13     5    19 1   
    14     6     7 ar  
    15     6    13 ar  
    16     6    22 1   
    17     7     8 1   
    18     7     9 ar  
    19     8    23 1   
    20     9    10 ar  
    21     9    12 1   
    22    10    11 ar  
    23    10    24 1   
    24    11    13 ar  
    25    11    25 1   
    26    12    26 1   
    27    13    31 1   
    28    14    31 2   
    29    15    27 1   
    30    15    31 1   
    31    17    28 1   
    32    18    29 1   
@<TRIPOS>SUBSTRUCTURE
     1 38D         1 TEMP              0 ****  ****    0 ROOT
