@<TRIPOS>MOLECULE
38D
   31    32     1     0     0
SMALL
No Charge or Current Charge


@<TRIPOS>ATOM
      1 N12         -8.7380   -15.3620    29.0680 n2         1 38D      -0.397300
      2 C13         -9.9840   -15.0400    28.8900 ce         1 38D       0.362800
      3 C15        -10.7390   -16.2790    30.9640 ca         1 38D      -0.063000
      4 C17        -13.0790   -16.3320    31.6250 ca         1 38D       0.136000
      5 C20        -12.4100   -15.1240    29.6210 ca         1 38D       0.141000
      6 C01         -5.7250   -13.8180    26.4390 ca         1 38D      -0.129000
      7 C02         -4.7300   -13.2940    25.5940 ca         1 38D       0.032100
      8 O03         -4.0680   -12.1420    25.9380 oh         1 38D      -0.558100
      9 C04         -4.4090   -13.9510    24.3910 ca         1 38D       0.148100
     10 C05         -5.0790   -15.1270    24.0320 ca         1 38D      -0.130000
     11 C06         -6.0740   -15.6540    24.8730 ca         1 38D      -0.042000
     12 O07         -3.4430   -13.4340    23.5810 oh         1 38D      -0.527100
     13 C08         -6.4140   -15.0100    26.0880 ca         1 38D      -0.162600
     14 O10         -8.0860   -16.6430    26.6450 o          1 38D      -0.543100
     15 N11         -7.7890   -14.9410    28.1490 ns         1 38D      -0.283900
     16 C14        -11.0570   -15.4850    29.8360 ca         1 38D      -0.112900
     17 C16        -11.7450   -16.6990    31.8520 ca         1 38D      -0.104000
     18 C19        -13.4100   -15.5470    30.5130 ca         1 38D      -0.102000
     19 Cl2        -12.8990   -14.1380    28.2430 cl         1 38D      -0.205000
     20 H1         -10.2780   -14.4310    28.0330 h4         1 38D      -0.001200
     21 H2          -9.7100   -16.5770    31.1610 ha         1 38D       0.149000
     22 H3          -5.9540   -13.2910    27.3620 ha         1 38D       0.111000
     23 H4          -4.4120   -11.8170    26.8000 ho         1 38D       0.476000
     24 H5          -4.8290   -15.6320    23.1020 ha         1 38D       0.141000
     25 H6          -6.5830   -16.5690    24.5750 ha         1 38D       0.144000
     26 H7          -3.1230   -12.6210    24.0350 ho         1 38D       0.486000
     27 H8          -7.2460   -14.1020    28.3220 hn         1 38D       0.306500
     28 H9         -11.4900   -17.3080    32.7150 ha         1 38D       0.139000
     29 H10        -14.4440   -15.2640    30.3400 ha         1 38D       0.146000
     30 Cl1        -14.3360   -16.8570    32.7370 cl         1 38D      -0.194000
     31 C09         -7.4960   -15.6150    26.9660 c          1 38D       0.637700
@<TRIPOS>BOND
     1     1     2 2   
     2     1    15 1   
     3     2    16 1   
     4     2    20 1   
     5     3    16 ar  
     6     3    17 ar  
     7     3    21 1   
     8     4    17 ar  
     9     4    18 ar  
    10     4    30 1   
    11     5    16 ar  
    12     5    18 ar  
    13     5    19 1   
    14     6     7 ar  
    15     6    13 ar  
    16     6    22 1   
    17     7     8 1   
    18     7     9 ar  
    19     8    23 1   
    20     9    10 ar  
    21     9    12 1   
    22    10    11 ar  
    23    10    24 1   
    24    11    13 ar  
    25    11    25 1   
    26    12    26 1   
    27    13    31 1   
    28    14    31 2   
    29    15    27 1   
    30    15    31 1   
    31    17    28 1   
    32    18    29 1   
@<TRIPOS>SUBSTRUCTURE
     1 38D         1 TEMP              0 ****  ****    0 ROOT
