@<TRIPOS>MOLECULE
38E
   28    29     1     0     0
SMALL
No Charge or Current Charge


@<TRIPOS>ATOM
      1 F1          -2.9780     2.3110     0.7590 f          1 38E      -0.170500
      2 C2          -2.6340     1.0570     0.3830 ca         1 38E       0.113500
      3 C1          -3.6150     0.1770    -0.1190 ca         1 38E       0.086100
      4 O1          -4.9240     0.5840    -0.2360 oh         1 38E      -0.503100
      5 C3          -1.2970     0.6440     0.5040 ca         1 38E      -0.094000
      6 C4          -0.9110    -0.6570     0.1200 ca         1 38E      -0.065800
      7 C5          -1.8940    -1.5410    -0.3700 ca         1 38E      -0.094000
      8 C           -3.2320    -1.1280    -0.4920 ca         1 38E       0.113500
      9 F           -4.1500    -2.0000    -0.9730 f          1 38E      -0.170500
     10 C6           0.5000    -1.1340     0.2460 ce         1 38E      -0.037200
     11 C7           1.6970    -0.4520     0.1290 cd         1 38E      -0.013600
     12 C9           3.0250    -1.0870     0.2350 c          1 38E       0.537200
     13 O            3.3380    -2.2520     0.4470 o          1 38E      -0.506000
     14 N1           3.8430    -0.0060     0.0290 n          1 38E      -0.363300
     15 C10          5.3170    -0.0830     0.0300 c3         1 38E       0.099300
     16 C8           3.0810     1.1250    -0.1800 cc         1 38E       0.468900
     17 N            1.7630     0.9150    -0.1340 nd         1 38E      -0.610300
     18 C11          3.6840     2.4750    -0.4410 c3         1 38E      -0.127400
     19 H1          -4.9890     1.5140     0.0740 ho         1 38E       0.483000
     20 H2          -0.5690     1.3400     0.9110 ha         1 38E       0.154000
     21 H3          -1.6230    -2.5520    -0.6660 ha         1 38E       0.154000
     22 H4           0.6040    -2.2070     0.4130 ha         1 38E       0.196000
     23 H5           5.6520    -1.1000     0.2660 h1         1 38E       0.051033
     24 H6           5.7010     0.1970    -0.9590 h1         1 38E       0.051033
     25 H7           5.7220     0.6070     0.7820 h1         1 38E       0.051033
     26 H8           4.3110     2.4510    -1.3380 hc         1 38E       0.065367
     27 H9           2.9060     3.2320    -0.5920 hc         1 38E       0.065367
     28 H10          4.3030     2.7910     0.4060 hc         1 38E       0.065367
@<TRIPOS>BOND
     1     1     2 1   
     2     2     3 ar  
     3     2     5 ar  
     4     3     4 1   
     5     3     8 ar  
     6     4    19 1   
     7     5     6 ar  
     8     5    20 1   
     9     6     7 ar  
    10     6    10 1   
    11     7     8 ar  
    12     7    21 1   
    13     8     9 1   
    14    10    11 2   
    15    10    22 1   
    16    11    12 1   
    17    11    17 1   
    18    12    13 2   
    19    12    14 1   
    20    14    15 1   
    21    14    16 1   
    22    15    23 1   
    23    15    24 1   
    24    15    25 1   
    25    16    17 2   
    26    16    18 1   
    27    18    26 1   
    28    18    27 1   
    29    18    28 1   
@<TRIPOS>SUBSTRUCTURE
     1 38E         1 TEMP              0 ****  ****    0 ROOT
