@<TRIPOS>MOLECULE
38E
   28    29     1     0     0
SMALL
abcg2


@<TRIPOS>ATOM
      1 F1          -2.8970     2.3770    -0.0230 f          1 38E      -0.170500
      2 C2          -2.5550     1.0770    -0.0250 ca         1 38E       0.113500
      3 C1          -3.5990     0.1530    -0.0330 ca         1 38E       0.086100
      4 O1          -4.8950     0.4730    -0.0390 oh         1 38E      -0.503100
      5 C3          -1.2300     0.7200    -0.0180 ca         1 38E      -0.094000
      6 C4          -0.8860    -0.6370    -0.0190 ca         1 38E      -0.065800
      7 C5          -1.9140    -1.5880    -0.0260 ca         1 38E      -0.094000
      8 C           -3.2280    -1.1880    -0.0330 ca         1 38E       0.113500
      9 F           -4.2060    -2.1010    -0.0400 f          1 38E      -0.170500
     10 C6           0.4790    -1.1200    -0.0140 ce         1 38E      -0.037200
     11 C7           1.6270    -0.4170    -0.0170 cd         1 38E      -0.013600
     12 C9           2.9610    -1.0660    -0.0170 c          1 38E       0.537200
     13 O            3.2670    -2.2400    -0.0090 o          1 38E      -0.506000
     14 N1           3.8230     0.0060    -0.0310 n          1 38E      -0.363300
     15 C10          5.2640    -0.0770    -0.0230 c3         1 38E       0.099300
     16 C8           3.0720     1.1630    -0.0300 cc         1 38E       0.468900
     17 N            1.7980     0.9600    -0.0230 nd         1 38E      -0.610300
     18 C11          3.7230     2.4910    -0.0420 c3         1 38E      -0.127400
     19 H1          -5.0180     1.4300    -0.0410 ho         1 38E       0.483000
     20 H2          -0.4680     1.4860    -0.0130 ha         1 38E       0.154000
     21 H3          -1.6860    -2.6470    -0.0260 ha         1 38E       0.154000
     22 H4           0.5910    -2.1990    -0.0080 ha         1 38E       0.196000
     23 H5           5.5530    -1.1200    -0.1300 h1         1 38E       0.051033
     24 H6           5.6870     0.4830    -0.8550 h1         1 38E       0.051033
     25 H7           5.6760     0.3040     0.9100 h1         1 38E       0.051033
     26 H8           4.3380     2.6140    -0.9360 hc         1 38E       0.065367
     27 H9           2.9700     3.2740    -0.0240 hc         1 38E       0.065367
     28 H10          4.3810     2.6110     0.8200 hc         1 38E       0.065367
@<TRIPOS>BOND
     1     1     2 1   
     2     2     3 ar  
     3     2     5 ar  
     4     3     4 1   
     5     3     8 ar  
     6     4    19 1   
     7     5     6 ar  
     8     5    20 1   
     9     6     7 ar  
    10     6    10 1   
    11     7     8 ar  
    12     7    21 1   
    13     8     9 1   
    14    10    11 2   
    15    10    22 1   
    16    11    12 1   
    17    11    17 1   
    18    12    13 2   
    19    12    14 1   
    20    14    15 1   
    21    14    16 1   
    22    15    23 1   
    23    15    24 1   
    24    15    25 1   
    25    16    17 2   
    26    16    18 1   
    27    18    26 1   
    28    18    27 1   
    29    18    28 1   
@<TRIPOS>SUBSTRUCTURE
     1 38E         1 TEMP              0 ****  ****    0 ROOT
