@<TRIPOS>MOLECULE
38F
   48    50     1     0     0
SMALL
abcg2


@<TRIPOS>ATOM
      1 CAO         -3.6720     0.6670     0.4210 c5         1 38F      -0.034100
      2 CAP         -5.1690     0.7000     0.2940 ca         1 38F      -0.087800
      3 CAS         -6.0650     1.6620     0.7330 ca         1 38F      -0.095500
      4 CAT         -7.4260     1.4710     0.5080 ca         1 38F      -0.111000
      5 CAU         -7.8780     0.3300    -0.1450 ca         1 38F      -0.111000
      6 CAV         -6.9770    -0.6350    -0.5860 ca         1 38F      -0.095500
      7 CAQ         -5.6230    -0.4420    -0.3640 ca         1 38F      -0.087800
      8 CAR         -4.4610    -1.3230    -0.7210 c5         1 38F      -0.034100
      9 CAN         -3.2660    -0.3590    -0.6520 c5         1 38F       0.166500
     10 NAM         -2.0270    -1.0480    -0.3550 n7         1 38F      -0.848400
     11 CAL         -0.8720    -0.1760    -0.3590 c3         1 38F       0.122800
     12 CAI          0.4140    -0.9530    -0.0920 c3         1 38F       0.168300
     13 OAH          0.3730    -1.6830     1.1090 oh         1 38F      -0.625000
     14 CAJ          1.5950     0.0040    -0.1370 c3         1 38F       0.129600
     15 OAK          2.7810    -0.7510    -0.0020 os         1 38F      -0.331100
     16 CAF          3.9660    -0.1060    -0.0370 ca         1 38F       0.141100
     17 CAG          5.1050    -0.9030     0.0900 ca         1 38F      -0.141000
     18 CAB          6.3790    -0.3560     0.0610 ca         1 38F      -0.038300
     19 CAA          7.5800    -1.2450     0.2020 c3         1 38F      -0.048800
     20 CAC          6.5360     1.0310    -0.0980 ca         1 38F      -0.113300
     21 CAW          7.9010     1.6540    -0.1430 c3         1 38F      -0.038800
     22 CAD          5.3950     1.8100    -0.2180 ca         1 38F      -0.071000
     23 CAE          4.1130     1.2670    -0.1900 ca         1 38F      -0.202000
     24 H1          -3.2100     1.6460     0.2820 hc         1 38F       0.060200
     25 H2          -3.3780     0.3030     1.4120 hc         1 38F       0.060200
     26 H3          -5.7170     2.5560     1.2370 ha         1 38F       0.113500
     27 H4          -8.1360     2.2170     0.8400 ha         1 38F       0.112000
     28 H5          -8.9380     0.1940    -0.3180 ha         1 38F       0.112000
     29 H6          -7.3340    -1.5210    -1.0970 ha         1 38F       0.113500
     30 H7          -4.3380    -2.1130     0.0290 hc         1 38F       0.060200
     31 H8          -4.5590    -1.8100    -1.6940 hc         1 38F       0.060200
     32 H9          -3.2170     0.1810    -1.6130 h1         1 38F       0.023700
     33 H10         -1.8890    -1.7690    -1.0550 hn         1 38F       0.417000
     34 H12         -0.7590     0.3780    -1.3040 h1         1 38F       0.033700
     35 H13         -0.9970     0.5800     0.4240 h1         1 38F       0.033700
     36 H14          0.5450    -1.6950    -0.8880 h1         1 38F       0.082700
     37 H15          0.1070    -1.0890     1.8190 ho         1 38F       0.441000
     38 H16          1.5900     0.5520    -1.0860 h1         1 38F       0.034700
     39 H17          1.5080     0.7420     0.6710 h1         1 38F       0.034700
     40 H18          4.9830    -1.9740     0.2100 ha         1 38F       0.127000
     41 H19          8.2550    -1.1440    -0.6490 hc         1 38F       0.043033
     42 H20          8.1580    -0.9950     1.0940 hc         1 38F       0.043033
     43 H21          7.2930    -2.2930     0.2780 hc         1 38F       0.043033
     44 H22          8.4720     1.4540     0.7660 hc         1 38F       0.038700
     45 H23          8.4940     1.2680    -0.9760 hc         1 38F       0.038700
     46 H24          7.8350     2.7350    -0.2600 hc         1 38F       0.038700
     47 H25          5.4980     2.8820    -0.3370 ha         1 38F       0.108000
     48 H26          3.2630     1.9260    -0.2910 ha         1 38F       0.113000
@<TRIPOS>BOND
     1     1     2 1   
     2     1     9 1   
     3     1    24 1   
     4     1    25 1   
     5     2     3 ar  
     6     2     7 ar  
     7     3     4 ar  
     8     3    26 1   
     9     4     5 ar  
    10     4    27 1   
    11     5     6 ar  
    12     5    28 1   
    13     6     7 ar  
    14     6    29 1   
    15     7     8 1   
    16     8     9 1   
    17     8    30 1   
    18     8    31 1   
    19     9    10 1   
    20     9    32 1   
    21    10    11 1   
    22    10    33 1   
    23    11    12 1   
    24    11    34 1   
    25    11    35 1   
    26    12    13 1   
    27    12    14 1   
    28    12    36 1   
    29    13    37 1   
    30    14    15 1   
    31    14    38 1   
    32    14    39 1   
    33    15    16 1   
    34    16    17 ar  
    35    16    23 ar  
    36    17    18 ar  
    37    17    40 1   
    38    18    19 1   
    39    18    20 ar  
    40    19    41 1   
    41    19    42 1   
    42    19    43 1   
    43    20    21 1   
    44    20    22 ar  
    45    21    44 1   
    46    21    45 1   
    47    21    46 1   
    48    22    23 ar  
    49    22    47 1   
    50    23    48 1   
@<TRIPOS>SUBSTRUCTURE
     1 38F         1 TEMP              0 ****  ****    0 ROOT
