@<TRIPOS>MOLECULE
38F
   48    50     1     0     0
SMALL
No Charge or Current Charge


@<TRIPOS>ATOM
      1 CAO         -3.6270     0.8180     0.1620 c5         1 38F      -0.034100
      2 CAP         -5.1170     0.7160     0.3650 ca         1 38F      -0.087800
      3 CAS         -5.9550     1.6740     0.9570 ca         1 38F      -0.095500
      4 CAT         -7.3320     1.3980     1.0690 ca         1 38F      -0.111000
      5 CAU         -7.8500     0.1730     0.5950 ca         1 38F      -0.111000
      6 CAV         -6.9920    -0.7780     0.0070 ca         1 38F      -0.095500
      7 CAQ         -5.6230    -0.4820    -0.0990 ca         1 38F      -0.087800
      8 CAR         -4.5490    -1.3640    -0.6820 c5         1 38F      -0.034100
      9 CAN         -3.4140    -0.2980    -0.9360 c5         1 38F       0.166500
     10 NAM         -2.0960    -0.9550    -0.7400 n7         1 38F      -0.848400
     11 CAL         -0.9020    -0.1240    -1.0610 c3         1 38F       0.122800
     12 CAI          0.3940    -0.8420    -0.6030 c3         1 38F       0.168300
     13 OAH          0.1050    -1.4300     0.6740 oh         1 38F      -0.625000
     14 CAJ          1.6110     0.1170    -0.5300 c3         1 38F       0.129600
     15 OAK          2.7970    -0.6530    -0.2470 os         1 38F      -0.331100
     16 CAF          4.0420    -0.0690    -0.1290 ca         1 38F       0.141100
     17 CAG          5.1350    -0.9030     0.1480 ca         1 38F      -0.141000
     18 CAB          6.4350    -0.3740     0.2810 ca         1 38F      -0.038300
     19 CAA          7.5970    -1.3160     0.5840 c3         1 38F      -0.048800
     20 CAC          6.6380     1.0180     0.1320 ca         1 38F      -0.113300
     21 CAW          8.0280     1.6340     0.2680 c3         1 38F      -0.038800
     22 CAD          5.5380     1.8540    -0.1470 ca         1 38F      -0.071000
     23 CAE          4.2470     1.3180    -0.2780 ca         1 38F      -0.202000
     24 H1          -3.3070     1.8050    -0.1880 hc         1 38F       0.060200
     25 H2          -3.0870     0.5970     1.0890 hc         1 38F       0.060200
     26 H3          -5.5490     2.6140     1.3230 ha         1 38F       0.113500
     27 H4          -7.9970     2.1290     1.5230 ha         1 38F       0.112000
     28 H5          -8.9130    -0.0380     0.6840 ha         1 38F       0.112000
     29 H6          -7.3840    -1.7250    -0.3570 ha         1 38F       0.113500
     30 H7          -4.2450    -2.1370     0.0340 hc         1 38F       0.060200
     31 H8          -4.8580    -1.8650    -1.6060 hc         1 38F       0.060200
     32 H9          -3.5090     0.1240    -1.9460 h1         1 38F       0.023700
     33 H10         -2.0640    -1.7920    -1.3390 hn         1 38F       0.417000
     34 H12         -0.8460     0.0840    -2.1380 h1         1 38F       0.033700
     35 H13         -0.9620     0.8420    -0.5410 h1         1 38F       0.033700
     36 H14          0.6180    -1.6290    -1.3360 h1         1 38F       0.082700
     37 H15         -0.8840    -1.4620     0.6620 ho         1 38F       0.441000
     38 H16          1.7150     0.6340    -1.4930 h1         1 38F       0.034700
     39 H17          1.4390     0.8690     0.2510 h1         1 38F       0.034700
     40 H18          4.9670    -1.9700     0.2610 ha         1 38F       0.127000
     41 H19          8.3530    -1.2770    -0.2090 hc         1 38F       0.043033
     42 H20          8.0840    -1.0510     1.5290 hc         1 38F       0.043033
     43 H21          7.2670    -2.3580     0.6680 hc         1 38F       0.043033
     44 H22          8.4490     1.4450     1.2620 hc         1 38F       0.038700
     45 H23          8.7190     1.2190    -0.4760 hc         1 38F       0.038700
     46 H24          8.0090     2.7210     0.1230 hc         1 38F       0.038700
     47 H25          5.6830     2.9260    -0.2640 ha         1 38F       0.108000
     48 H26          3.4230     1.9920    -0.4930 ha         1 38F       0.113000
@<TRIPOS>BOND
     1     1     2 1   
     2     1     9 1   
     3     1    24 1   
     4     1    25 1   
     5     2     3 ar  
     6     2     7 ar  
     7     3     4 ar  
     8     3    26 1   
     9     4     5 ar  
    10     4    27 1   
    11     5     6 ar  
    12     5    28 1   
    13     6     7 ar  
    14     6    29 1   
    15     7     8 1   
    16     8     9 1   
    17     8    30 1   
    18     8    31 1   
    19     9    10 1   
    20     9    32 1   
    21    10    11 1   
    22    10    33 1   
    23    11    12 1   
    24    11    34 1   
    25    11    35 1   
    26    12    13 1   
    27    12    14 1   
    28    12    36 1   
    29    13    37 1   
    30    14    15 1   
    31    14    38 1   
    32    14    39 1   
    33    15    16 1   
    34    16    17 ar  
    35    16    23 ar  
    36    17    18 ar  
    37    17    40 1   
    38    18    19 1   
    39    18    20 ar  
    40    19    41 1   
    41    19    42 1   
    42    19    43 1   
    43    20    21 1   
    44    20    22 ar  
    45    21    44 1   
    46    21    45 1   
    47    21    46 1   
    48    22    23 ar  
    49    22    47 1   
    50    23    48 1   
@<TRIPOS>SUBSTRUCTURE
     1 38F         1 TEMP              0 ****  ****    0 ROOT
