@<TRIPOS>MOLECULE
38G
   59    62     1     0     0
SMALL
No Charge or Current Charge


@<TRIPOS>ATOM
      1 CBF         -3.6020     3.8570    -0.5010 c3         1 38G       0.142900
      2 OBE         -4.9800     3.4510    -0.4120 os         1 38G      -0.320100
      3 CAZ         -5.3630     2.1410    -0.1590 ca         1 38G       0.106100
      4 CAY         -4.4160     1.1090     0.0360 ca         1 38G      -0.134000
      5 CBA         -6.7400     1.8380    -0.0970 ca         1 38G       0.131100
      6 OBD         -7.6860     2.8110    -0.2830 oh         1 38G      -0.507100
      7 CBB         -7.1510     0.5230     0.1500 ca         1 38G      -0.190000
      8 CBC         -6.2070    -0.4980     0.3440 ca         1 38G      -0.077000
      9 CAX         -4.8120    -0.2330     0.3030 ca         1 38G      -0.156500
     10 CAV         -3.7870    -1.3060     0.4910 cc         1 38G       0.399500
     11 CAU         -4.1890    -2.6410     0.9070 cc         1 38G      -0.162000
     12 CAT         -3.2600    -3.6420     1.0510 cd         1 38G      -0.020000
     13 NAW         -2.5190    -0.9480     0.2250 nd         1 38G      -0.489800
     14 NAS         -1.6050    -1.9670     0.4020 na         1 38G       0.258900
     15 CAR         -1.9290    -3.2470     0.7680 cd         1 38G      -0.129000
     16 NAQ         -0.8490    -3.9970     0.8040 nc         1 38G      -0.262600
     17 CAP          0.1810    -3.1590     0.4370 cc         1 38G      -0.037400
     18 CAG         -0.2370    -1.8620     0.1750 cd         1 38G      -0.079300
     19 CAB          0.6090    -0.7130    -0.2590 ca         1 38G      -0.016800
     20 CAA          1.9870    -0.9260    -0.5070 ca         1 38G      -0.087000
     21 CAC          0.1060     0.5990    -0.4320 ca         1 38G      -0.081000
     22 CAD          0.9460     1.6480    -0.8400 ca         1 38G      -0.124000
     23 CAE          2.3060     1.4140    -1.0840 ca         1 38G      -0.079000
     24 CAF          2.8390     0.1200    -0.9190 ca         1 38G      -0.130300
     25 CAH          4.3170    -0.1650    -1.1790 c3         1 38G       0.449800
     26 OAI          4.6910     0.3500    -2.4360 oh         1 38G      -0.678000
     27 NAJ          5.1440     0.5380    -0.2230 n7         1 38G      -0.918400
     28 CAK          6.5830     0.1650    -0.2090 c3         1 38G       0.174800
     29 CAL          7.3730     0.9670     0.8680 c3         1 38G       0.160800
     30 NAM          8.8090     0.5950     1.0270 n3         1 38G      -0.712600
     31 CAO          9.6170     0.8030    -0.1990 c3         1 38G       0.149600
     32 CAN          9.4220     1.2420     2.2080 c3         1 38G       0.149600
     33 H1          -3.0890     3.3210    -1.3110 h1         1 38G       0.043033
     34 H2          -3.5360     4.9320    -0.7100 h1         1 38G       0.043033
     35 H3          -3.0760     3.6620     0.4420 h1         1 38G       0.043033
     36 H4          -3.3610     1.3560    -0.0080 ha         1 38G       0.141000
     37 H5          -8.5730     2.4020    -0.2030 ho         1 38G       0.463000
     38 H6          -8.2100     0.2790     0.1900 ha         1 38G       0.119000
     39 H7          -6.5980    -1.4960     0.5070 ha         1 38G       0.116000
     40 H8          -5.2200    -2.8720     1.1240 ha         1 38G       0.135000
     41 H9          -3.5240    -4.6510     1.3520 ha         1 38G       0.148000
     42 H10          1.1860    -3.5620     0.3900 h4         1 38G       0.230000
     43 H11          2.4150    -1.9170    -0.3850 ha         1 38G       0.125000
     44 H12         -0.9320     0.8380    -0.2460 ha         1 38G       0.129000
     45 H13          0.5400     2.6490    -0.9640 ha         1 38G       0.112000
     46 H14          2.9450     2.2360    -1.3990 ha         1 38G       0.130000
     47 H15          4.5040    -1.2510    -1.1510 h2         1 38G       0.097700
     48 H16          4.0570    -0.0390    -3.0730 ho         1 38G       0.437000
     49 H17          5.0710     1.5220    -0.4870 hn         1 38G       0.418000
     50 H19          6.6940    -0.9060     0.0090 h1         1 38G       0.044200
     51 H20          7.0340     0.3510    -1.1930 h1         1 38G       0.044200
     52 H21          7.2930     2.0360     0.6300 h1         1 38G       0.035200
     53 H22          6.8580     0.8170     1.8270 h1         1 38G       0.035200
     54 H24          9.6040     1.8590    -0.5020 h1         1 38G       0.030367
     55 H25         10.6610     0.5090    -0.0280 h1         1 38G       0.030367
     56 H26          9.2380     0.1980    -1.0320 h1         1 38G       0.030367
     57 H27          8.8560     1.0060     3.1190 h1         1 38G       0.030367
     58 H28         10.4530     0.8900     2.3530 h1         1 38G       0.030367
     59 H29          9.4440     2.3340     2.0900 h1         1 38G       0.030367
@<TRIPOS>BOND
     1     1     2 1   
     2     1    33 1   
     3     1    34 1   
     4     1    35 1   
     5     2     3 1   
     6     3     4 ar  
     7     3     5 ar  
     8     4     9 ar  
     9     4    36 1   
    10     5     6 1   
    11     5     7 ar  
    12     6    37 1   
    13     7     8 ar  
    14     7    38 1   
    15     8     9 ar  
    16     8    39 1   
    17     9    10 1   
    18    10    11 1   
    19    10    13 2   
    20    11    12 2   
    21    11    40 1   
    22    12    15 1   
    23    12    41 1   
    24    13    14 1   
    25    14    15 1   
    26    14    18 1   
    27    15    16 2   
    28    16    17 1   
    29    17    18 2   
    30    17    42 1   
    31    18    19 1   
    32    19    20 ar  
    33    19    21 ar  
    34    20    24 ar  
    35    20    43 1   
    36    21    22 ar  
    37    21    44 1   
    38    22    23 ar  
    39    22    45 1   
    40    23    24 ar  
    41    23    46 1   
    42    24    25 1   
    43    25    26 1   
    44    25    27 1   
    45    25    47 1   
    46    26    48 1   
    47    27    28 1   
    48    27    49 1   
    49    28    29 1   
    50    28    50 1   
    51    28    51 1   
    52    29    30 1   
    53    29    52 1   
    54    29    53 1   
    55    30    31 1   
    56    30    32 1   
    57    31    54 1   
    58    31    55 1   
    59    31    56 1   
    60    32    57 1   
    61    32    58 1   
    62    32    59 1   
@<TRIPOS>SUBSTRUCTURE
     1 38G         1 TEMP              0 ****  ****    0 ROOT
