@<TRIPOS>MOLECULE
38G
   59    62     1     0     0
SMALL
abcg2


@<TRIPOS>ATOM
      1 CBF         -2.9210     3.5500     0.8800 c3         1 38G       0.142900
      2 OBE         -4.3200     3.4280     0.7200 os         1 38G      -0.320100
      3 CAZ         -4.8170     2.2200     0.3970 ca         1 38G       0.106100
      4 CAY         -4.0680     1.0710     0.2510 ca         1 38G      -0.134000
      5 CBA         -6.2120     2.1690     0.2040 ca         1 38G       0.131100
      6 OBD         -6.8920     3.3160     0.3660 oh         1 38G      -0.507100
      7 CBB         -6.8020     0.9650    -0.1350 ca         1 38G      -0.190000
      8 CBC         -6.0390    -0.1870    -0.2850 ca         1 38G      -0.077000
      9 CAX         -4.6660    -0.1510    -0.0930 ca         1 38G      -0.156500
     10 CAV         -3.8210    -1.3480    -0.2650 cc         1 38G       0.399500
     11 CAU         -4.3780    -2.6540    -0.4190 cc         1 38G      -0.162000
     12 CAT         -3.5520    -3.7220    -0.5810 cd         1 38G      -0.020000
     13 NAW         -2.5340    -1.1380    -0.2660 nd         1 38G      -0.489800
     14 NAS         -1.7460    -2.1900    -0.4270 na         1 38G       0.258900
     15 CAR         -2.1660    -3.4940    -0.5890 cd         1 38G      -0.129000
     16 NAQ         -1.1360    -4.3090    -0.7150 nc         1 38G      -0.262600
     17 CAP         -0.0480    -3.5180    -0.6280 cc         1 38G      -0.037400
     18 CAG         -0.3760    -2.1860    -0.4450 cd         1 38G      -0.079300
     19 CAB          0.4850    -1.0200    -0.2950 ca         1 38G      -0.016800
     20 CAA          1.7740    -1.2170     0.2150 ca         1 38G      -0.087000
     21 CAC          0.1020     0.2690    -0.6690 ca         1 38G      -0.081000
     22 CAD          0.9910     1.3230    -0.5200 ca         1 38G      -0.124000
     23 CAE          2.2670     1.1140    -0.0240 ca         1 38G      -0.079000
     24 CAF          2.6750    -0.1690     0.3390 ca         1 38G      -0.130300
     25 CAH          4.0690    -0.3980     0.9030 c3         1 38G       0.449800
     26 OAI          4.4060    -1.7700     0.9500 oh         1 38G      -0.678000
     27 NAJ          5.0030     0.4340     0.2100 n7         1 38G      -0.918400
     28 CAK          6.3780     0.3740     0.6740 c3         1 38G       0.174800
     29 CAL          7.1580     1.5380     0.0770 c3         1 38G       0.160800
     30 NAM          8.5600     1.5370     0.4490 n3         1 38G      -0.712600
     31 CAO          9.3120     0.5110    -0.2440 c3         1 38G       0.149600
     32 CAN          9.1580     2.8360     0.2240 c3         1 38G       0.149600
     33 H1          -2.3810     3.2770    -0.0320 h1         1 38G       0.043033
     34 H2          -2.7250     4.5960     1.1010 h1         1 38G       0.043033
     35 H3          -2.5480     2.9400     1.7070 h1         1 38G       0.043033
     36 H4          -2.9990     1.0970     0.4080 ha         1 38G       0.141000
     37 H5          -7.8330     3.1680     0.2170 ho         1 38G       0.463000
     38 H6          -7.8740     0.9190    -0.2890 ha         1 38G       0.119000
     39 H7          -6.5480    -1.0980    -0.5670 ha         1 38G       0.116000
     40 H8          -5.4470    -2.7990    -0.3960 ha         1 38G       0.135000
     41 H9          -3.9290    -4.7290    -0.6950 ha         1 38G       0.148000
     42 H10          0.9490    -3.9220    -0.7160 h4         1 38G       0.230000
     43 H11          2.0640    -2.2100     0.5300 ha         1 38G       0.125000
     44 H12         -0.8800     0.4560    -1.0790 ha         1 38G       0.129000
     45 H13          0.6830     2.3210    -0.8070 ha         1 38G       0.112000
     46 H14          2.9520     1.9450     0.0770 ha         1 38G       0.130000
     47 H15          4.0760    -0.0930     1.9550 h2         1 38G       0.097700
     48 H16          4.4370    -2.1130     0.0490 ho         1 38G       0.437000
     49 H17          4.9570     0.2740    -0.7910 hn         1 38G       0.418000
     50 H19          6.3820     0.4690     1.7640 h1         1 38G       0.044200
     51 H20          6.8590    -0.5830     0.4420 h1         1 38G       0.044200
     52 H21          7.0320     1.5410    -1.0220 h1         1 38G       0.035200
     53 H22          6.7050     2.4630     0.4410 h1         1 38G       0.035200
     54 H24          9.2760     0.6210    -1.3400 h1         1 38G       0.030367
     55 H25         10.3590     0.5530     0.0590 h1         1 38G       0.030367
     56 H26          8.9450    -0.4850     0.0020 h1         1 38G       0.030367
     57 H27          8.6310     3.5990     0.8000 h1         1 38G       0.030367
     58 H28         10.1980     2.8290     0.5530 h1         1 38G       0.030367
     59 H29          9.1450     3.1470    -0.8330 h1         1 38G       0.030367
@<TRIPOS>BOND
     1     1     2 1   
     2     1    33 1   
     3     1    34 1   
     4     1    35 1   
     5     2     3 1   
     6     3     4 ar  
     7     3     5 ar  
     8     4     9 ar  
     9     4    36 1   
    10     5     6 1   
    11     5     7 ar  
    12     6    37 1   
    13     7     8 ar  
    14     7    38 1   
    15     8     9 ar  
    16     8    39 1   
    17     9    10 1   
    18    10    11 1   
    19    10    13 2   
    20    11    12 2   
    21    11    40 1   
    22    12    15 1   
    23    12    41 1   
    24    13    14 1   
    25    14    15 1   
    26    14    18 1   
    27    15    16 2   
    28    16    17 1   
    29    17    18 2   
    30    17    42 1   
    31    18    19 1   
    32    19    20 ar  
    33    19    21 ar  
    34    20    24 ar  
    35    20    43 1   
    36    21    22 ar  
    37    21    44 1   
    38    22    23 ar  
    39    22    45 1   
    40    23    24 ar  
    41    23    46 1   
    42    24    25 1   
    43    25    26 1   
    44    25    27 1   
    45    25    47 1   
    46    26    48 1   
    47    27    28 1   
    48    27    49 1   
    49    28    29 1   
    50    28    50 1   
    51    28    51 1   
    52    29    30 1   
    53    29    52 1   
    54    29    53 1   
    55    30    31 1   
    56    30    32 1   
    57    31    54 1   
    58    31    55 1   
    59    31    56 1   
    60    32    57 1   
    61    32    58 1   
    62    32    59 1   
@<TRIPOS>SUBSTRUCTURE
     1 38G         1 TEMP              0 ****  ****    0 ROOT
