@<TRIPOS>MOLECULE
38H
   76    83     1     0     0
SMALL
bcc


@<TRIPOS>ATOM
      1 C1           8.5260    -4.2290     0.6700 ca         1 38H      -0.054100
      2 N1           7.8730    -2.4080    -0.6650 nc         1 38H      -0.547100
      3 O1           6.5880     0.0630    -1.1940 o          1 38H      -0.492100
      4 S1           8.0890    -3.0320     1.8460 ss         1 38H      -0.177100
      5 C2           8.9980    -5.5180     0.8760 ca         1 38H      -0.088000
      6 O2          -0.8720    -1.6000    -2.0220 o          1 38H      -0.804300
      7 S2           0.3990     2.6740    -1.0370 ss         1 38H      -0.409300
      8 C3           9.2800    -6.2890    -0.2400 ca         1 38H      -0.134000
      9 N3           3.0300     2.4510    -0.3840 nh         1 38H      -0.768300
     10 O3           1.3210    -1.9960    -1.9400 o          1 38H      -0.804300
     11 C4           9.0950    -5.7810    -1.5290 ca         1 38H      -0.127000
     12 N4           1.8450     0.5680    -1.1350 nc         1 38H      -0.663000
     13 O4          -4.8860     0.5880     0.2160 os         1 38H      -0.312900
     14 C5           8.6250    -4.4950    -1.7270 ca         1 38H      -0.077000
     15 N5         -10.4230     0.7380     0.3170 na         1 38H       0.092100
     16 C6           8.3360    -3.7030    -0.6180 ca         1 38H       0.132400
     17 N6         -11.0900     1.7450    -0.2850 nc         1 38H      -0.494100
     18 C7           7.7060    -1.9450     0.5180 cd         1 38H       0.497800
     19 C8           6.7840     0.2680    -0.0190 c          1 38H       0.685700
     20 C9           6.5330     1.5850     0.6390 ca         1 38H      -0.156600
     21 C10          7.5240     2.1110     1.4610 ca         1 38H      -0.114000
     22 C11          7.3620     3.3600     2.0390 ca         1 38H      -0.145000
     23 C12          6.2010     4.0690     1.8010 ca         1 38H      -0.111000
     24 C13          5.1930     3.5540     0.9860 ca         1 38H      -0.075300
     25 C14          5.3530     2.3050     0.3890 ca         1 38H      -0.010300
     26 C15          4.2760     1.7220    -0.4930 c6         1 38H       0.243100
     27 C16          3.1640     3.8920    -0.4360 c6         1 38H       0.219800
     28 C17          3.9380     4.3550     0.7800 c6         1 38H      -0.038100
     29 C18          1.9120     1.8250    -0.8440 cd         1 38H       0.685300
     30 C19          0.5730     0.1860    -1.4980 cc         1 38H       0.358800
     31 C20          0.3190    -1.2660    -1.8520 c          1 38H       0.835100
     32 C21         -0.3550     1.1810    -1.5200 cd         1 38H      -0.122700
     33 C22         -1.8160     1.1880    -1.8310 c3         1 38H       0.026900
     34 C23         -2.6710     0.8630    -0.6060 c3         1 38H      -0.079400
     35 C24         -4.1440     0.9330    -0.9450 c3         1 38H       0.138400
     36 C25         -6.2280     0.6360     0.1700 ca         1 38H       0.176100
     37 C26         -6.9640     1.0420    -0.9420 ca         1 38H      -0.192000
     38 C27         -8.3510     1.0620    -0.8860 ca         1 38H      -0.075500
     39 C28         -9.0130     0.6920     0.2730 ca         1 38H      -0.047200
     40 C29         -8.2830     0.2900     1.3870 ca         1 38H      -0.075500
     41 C30         -6.9030     0.2550     1.3310 ca         1 38H      -0.192000
     42 C31        -12.3660     1.5290    -0.1300 cd         1 38H       0.372800
     43 C32        -12.5760     0.3320     0.6020 ca         1 38H      -0.467500
     44 C33        -13.6220    -0.4450     1.0860 ca         1 38H       0.512200
     45 C34        -12.0890    -1.9200     1.9140 ca         1 38H       0.668900
     46 C35        -11.2850    -0.1480     0.8650 ca         1 38H       0.462800
     47 N8         -11.0120    -1.2740     1.5140 nb         1 38H      -0.691000
     48 N7         -13.3700    -1.5650     1.7390 nb         1 38H      -0.741000
     49 H1           9.1420    -5.9110     1.8730 ha         1 38H       0.135000
     50 H2           7.2670    -0.4500     1.8290 hn         1 38H       0.333500
     51 H3           9.6490    -7.2970    -0.1080 ha         1 38H       0.126000
     52 H5           9.3210    -6.4020    -2.3840 ha         1 38H       0.131000
     53 H6           8.4800    -4.0990    -2.7240 ha         1 38H       0.156000
     54 H7           8.4410     1.5600     1.6330 ha         1 38H       0.129000
     55 H8           8.1390     3.7740     2.6670 ha         1 38H       0.128000
     56 H9           6.0640     5.0450     2.2510 ha         1 38H       0.125000
     57 H10          4.0880     0.6860    -0.2130 h1         1 38H       0.090700
     58 H11          4.6180     1.7070    -1.5350 h1         1 38H       0.090700
     59 H12          3.6710     4.1970    -1.3600 h1         1 38H       0.045700
     60 H13          2.1840     4.3670    -0.4380 h1         1 38H       0.045700
     61 H14          3.3010     4.2670     1.6650 hc         1 38H       0.054200
     62 H15          4.1860     5.4130     0.6760 hc         1 38H       0.054200
     63 H16         -2.1020     2.1670    -2.2270 hc         1 38H       0.050700
     64 H17         -2.0130     0.4570    -2.6130 hc         1 38H       0.050700
     65 H18         -2.4120    -0.1380    -0.2580 hc         1 38H       0.068700
     66 H19         -2.4470     1.5660     0.2010 hc         1 38H       0.068700
     67 H20         -4.3810     0.2430    -1.7630 h1         1 38H       0.032700
     68 H21         -4.4060     1.9440    -1.2780 h1         1 38H       0.032700
     69 H22         -6.4840     1.3410    -1.8620 ha         1 38H       0.149000
     70 H23         -8.9090     1.3740    -1.7590 ha         1 38H       0.145000
     71 H24         -8.7820     0.0090     2.3040 ha         1 38H       0.145000
     72 H25         -6.3380    -0.0580     2.1990 ha         1 38H       0.149000
     73 H26        -13.0950     2.2180    -0.5280 h4         1 38H       0.052800
     74 H27        -14.6600    -0.1650     0.9440 h4         1 38H       0.023100
     75 H28        -11.9230    -2.8480     2.4480 h5         1 38H       0.050100
     76 N2           7.2720    -0.6860     0.8470 ns         1 38H      -0.481400
@<TRIPOS>BOND
     1     1     4 1   
     2     1     5 ar  
     3     1    16 ar  
     4     2    16 1   
     5     2    18 2   
     6     3    19 2   
     7     4    18 1   
     8     5     8 ar  
     9     5    49 1   
    10     6    31 1   
    11     7    29 1   
    12     7    32 1   
    13     8    11 ar  
    14     8    51 1   
    15     9    26 1   
    16     9    27 1   
    17     9    29 1   
    18    10    31 1   
    19    11    14 ar  
    20    11    52 1   
    21    12    29 2   
    22    12    30 1   
    23    13    35 1   
    24    13    36 1   
    25    14    16 ar  
    26    14    53 1   
    27    15    17 1   
    28    15    39 1   
    29    15    46 1   
    30    17    42 2   
    31    18    76 1   
    32    19    20 1   
    33    19    76 1   
    34    20    21 ar  
    35    20    25 ar  
    36    21    22 ar  
    37    21    54 1   
    38    22    23 ar  
    39    22    55 1   
    40    23    24 ar  
    41    23    56 1   
    42    24    25 ar  
    43    24    28 1   
    44    25    26 1   
    45    26    57 1   
    46    26    58 1   
    47    27    28 1   
    48    27    59 1   
    49    27    60 1   
    50    28    61 1   
    51    28    62 1   
    52    30    31 1   
    53    30    32 2   
    54    32    33 1   
    55    33    34 1   
    56    33    63 1   
    57    33    64 1   
    58    34    35 1   
    59    34    65 1   
    60    34    66 1   
    61    35    67 1   
    62    35    68 1   
    63    36    37 ar  
    64    36    41 ar  
    65    37    38 ar  
    66    37    69 1   
    67    38    39 ar  
    68    38    70 1   
    69    39    40 ar  
    70    40    41 ar  
    71    40    71 1   
    72    41    72 1   
    73    42    43 1   
    74    42    73 1   
    75    43    44 ar  
    76    43    46 ar  
    77    44    48 ar  
    78    44    74 1   
    79    45    47 ar  
    80    45    48 ar  
    81    45    75 1   
    82    46    47 ar  
    83    50    76 1   
@<TRIPOS>SUBSTRUCTURE
     1 38H         1 TEMP              0 ****  ****    0 ROOT
