@<TRIPOS>MOLECULE
38H
   76    83     1     0     0
SMALL
No Charge or Current Charge


@<TRIPOS>ATOM
      1 C1           9.1420    -4.1920     0.6830 ca         1 38H      -0.181000
      2 N1           7.8060    -2.6910    -0.5660 nc         1 38H      -0.547100
      3 O1           6.3930    -0.2400    -0.9990 o          1 38H      -0.492100
      4 S1           9.0900    -2.8430     1.7940 ss         1 38H      -0.050200
      5 C2           9.8120    -5.4070     0.8950 ca         1 38H      -0.070000
      6 O2          -1.1010    -1.3730    -2.3270 o          1 38H      -0.699000
      7 S2           0.3870     2.8840    -1.1210 ss         1 38H      -0.264400
      8 C3           9.7510    -6.3910    -0.1090 ca         1 38H      -0.116000
      9 N3           3.0600     2.4820    -0.5540 nh         1 38H      -0.768300
     10 O3           0.9060    -1.9930    -1.9880 o          1 38H      -0.699000
     11 C4           9.0270    -6.1440    -1.2940 ca         1 38H      -0.109000
     12 N4           1.7600     0.6490    -1.2550 nc         1 38H      -0.663000
     13 O4          -5.0280     0.8710     0.0850 os         1 38H      -0.336100
     14 C5           8.3640    -4.9130    -1.4770 ca         1 38H      -0.059000
     15 N5         -10.6160     0.7570     0.4140 na         1 38H       0.092100
     16 C6           8.4280    -3.9330    -0.4720 ca         1 38H       0.132400
     17 N6         -11.3710     1.8890     0.0980 nc         1 38H      -0.494100
     18 C7           8.0810    -2.0280     0.5670 cd         1 38H       0.497800
     19 C8           6.8420     0.0770     0.0920 c          1 38H       0.618700
     20 C9           6.6040     1.4530     0.6990 ca         1 38H      -0.156600
     21 C10          7.5810     2.0030     1.5690 ca         1 38H      -0.096000
     22 C11          7.4070     3.2670     2.1460 ca         1 38H      -0.127000
     23 C12          6.2580     4.0120     1.8690 ca         1 38H      -0.093000
     24 C13          5.2750     3.5000     1.0060 ca         1 38H      -0.075300
     25 C14          5.4310     2.2190     0.4130 ca         1 38H      -0.010300
     26 C15          4.3080     1.6610    -0.5000 c6         1 38H       0.243100
     27 C16          3.3010     3.9420    -0.5520 c6         1 38H       0.219800
     28 C17          4.0250     4.3420     0.7440 c6         1 38H      -0.038100
     29 C18          1.8490     1.9290    -0.9800 cd         1 38H       0.685300
     30 C19          0.4600     0.3230    -1.6320 cc         1 38H       0.293500
     31 C20          0.0540    -1.1090    -2.0110 c          1 38H       0.624500
     32 C21         -0.4220     1.4080    -1.6260 cd         1 38H      -0.202300
     33 C22         -1.8940     1.4880    -1.9700 c3         1 38H       0.026900
     34 C23         -2.7980     1.1250    -0.7730 c3         1 38H      -0.079400
     35 C24         -4.2980     1.2130    -1.1050 c3         1 38H       0.161600
     36 C25         -6.4070     0.8570     0.1220 ca         1 38H       0.176100
     37 C26         -7.2030     1.1750    -1.0000 ca         1 38H      -0.174000
     38 C27         -8.6060     1.1430    -0.8990 ca         1 38H      -0.057500
     39 C28         -9.2260     0.7940     0.3170 ca         1 38H      -0.047200
     40 C29         -8.4280     0.4770     1.4340 ca         1 38H      -0.057500
     41 C30         -7.0260     0.5090     1.3330 ca         1 38H      -0.174000
     42 C31        -12.6330     1.4970     0.3270 cd         1 38H       0.372800
     43 C32        -12.6710     0.1290     0.7860 ca         1 38H      -0.336900
     44 C33        -13.7320    -0.7080     1.1450 ca         1 38H       0.183900
     45 C34        -12.1570    -2.3420     1.5610 ca         1 38H       0.142900
     46 C35        -11.3840    -0.3180     0.8340 ca         1 38H       0.134500
     47 N8         -11.0890    -1.5750     1.2240 nb         1 38H      -0.165000
     48 N7         -13.4650    -1.9730     1.5420 nb         1 38H      -0.215000
     49 H1          10.3670    -5.5850     1.8140 ha         1 38H       0.117000
     50 H2           7.9110    -0.3650     1.7340 hn         1 38H       0.333500
     51 H3          10.2610    -7.3410     0.0300 ha         1 38H       0.108000
     52 H5           8.9800    -6.9050    -2.0700 ha         1 38H       0.113000
     53 H6           7.8060    -4.7210    -2.3900 ha         1 38H       0.138000
     54 H7           8.5040     1.4710     1.7890 ha         1 38H       0.111000
     55 H8           8.1700     3.6730     2.8080 ha         1 38H       0.110000
     56 H9           6.1290     4.9910     2.3250 ha         1 38H       0.107000
     57 H10          4.0720     0.6460    -0.1470 h1         1 38H       0.090700
     58 H11          4.7080     1.5570    -1.5200 h1         1 38H       0.090700
     59 H12          3.9280     4.2160    -1.4140 h1         1 38H       0.045700
     60 H13          2.3750     4.5270    -0.6290 h1         1 38H       0.045700
     61 H14          3.3350     4.2330     1.5920 hc         1 38H       0.054200
     62 H15          4.2880     5.4070     0.6940 hc         1 38H       0.054200
     63 H16         -2.1370     2.5100    -2.2880 hc         1 38H       0.050700
     64 H17         -2.1360     0.8560    -2.8310 hc         1 38H       0.050700
     65 H18         -2.5650     0.1080    -0.4360 hc         1 38H       0.068700
     66 H19         -2.5740     1.8000     0.0620 hc         1 38H       0.068700
     67 H20         -4.5350     0.5170    -1.9200 h1         1 38H       0.032700
     68 H21         -4.5420     2.2340    -1.4280 h1         1 38H       0.032700
     69 H22         -6.7560     1.4480    -1.9510 ha         1 38H       0.131000
     70 H23         -9.2140     1.3890    -1.7680 ha         1 38H       0.127000
     71 H24         -8.8940     0.2080     2.3800 ha         1 38H       0.127000
     72 H25         -6.4150     0.2640     2.1980 ha         1 38H       0.131000
     73 H26        -13.4430     2.1950     0.1580 h4         1 38H       0.052800
     74 H27        -14.7720    -0.3860     1.1190 h4         1 38H       0.023100
     75 H28        -11.9430    -3.3600     1.8800 h5         1 38H       0.050100
     76 N2           7.6400    -0.7570     0.8450 ns         1 38H      -0.414400
@<TRIPOS>BOND
     1     1     4 1   
     2     1     5 ar  
     3     1    16 ar  
     4     2    16 1   
     5     2    18 2   
     6     3    19 2   
     7     4    18 1   
     8     5     8 ar  
     9     5    49 1   
    10     6    31 1   
    11     7    29 1   
    12     7    32 1   
    13     8    11 ar  
    14     8    51 1   
    15     9    26 1   
    16     9    27 1   
    17     9    29 1   
    18    10    31 1   
    19    11    14 ar  
    20    11    52 1   
    21    12    29 2   
    22    12    30 1   
    23    13    35 1   
    24    13    36 1   
    25    14    16 ar  
    26    14    53 1   
    27    15    17 1   
    28    15    39 1   
    29    15    46 1   
    30    17    42 2   
    31    18    76 1   
    32    19    20 1   
    33    19    76 1   
    34    20    21 ar  
    35    20    25 ar  
    36    21    22 ar  
    37    21    54 1   
    38    22    23 ar  
    39    22    55 1   
    40    23    24 ar  
    41    23    56 1   
    42    24    25 ar  
    43    24    28 1   
    44    25    26 1   
    45    26    57 1   
    46    26    58 1   
    47    27    28 1   
    48    27    59 1   
    49    27    60 1   
    50    28    61 1   
    51    28    62 1   
    52    30    31 1   
    53    30    32 2   
    54    32    33 1   
    55    33    34 1   
    56    33    63 1   
    57    33    64 1   
    58    34    35 1   
    59    34    65 1   
    60    34    66 1   
    61    35    67 1   
    62    35    68 1   
    63    36    37 ar  
    64    36    41 ar  
    65    37    38 ar  
    66    37    69 1   
    67    38    39 ar  
    68    38    70 1   
    69    39    40 ar  
    70    40    41 ar  
    71    40    71 1   
    72    41    72 1   
    73    42    43 1   
    74    42    73 1   
    75    43    44 ar  
    76    43    46 ar  
    77    44    48 ar  
    78    44    74 1   
    79    45    47 ar  
    80    45    48 ar  
    81    45    75 1   
    82    46    47 ar  
    83    50    76 1   
@<TRIPOS>SUBSTRUCTURE
     1 38H         1 TEMP              0 ****  ****    0 ROOT
