@<TRIPOS>MOLECULE
38K
   52    55     1     0     0
SMALL
No Charge or Current Charge


@<TRIPOS>ATOM
      1 O30          3.6120     4.4320     1.0940 o          1 38K      -0.535000
      2 S28          3.5070     3.1810     0.3460 sy         1 38K       1.157600
      3 O29          4.0840     3.0030    -0.9830 o          1 38K      -0.535000
      4 N31          4.2570     2.0510     1.2440 n8         1 38K      -1.002100
      5 C10          1.8580     2.5940     0.3540 ca         1 38K      -0.460500
      6 C9           1.5090     1.3200    -0.0730 ca         1 38K       0.497000
      7 N8           2.5100     0.4480    -0.5030 nu         1 38K      -0.957000
      8 C4           2.9120    -0.8130    -0.0580 ca         1 38K       0.214000
      9 C3           3.7750    -1.5980    -0.8420 ca         1 38K      -0.063000
     10 C5           2.4710    -1.2930     1.1840 ca         1 38K      -0.204000
     11 C6           2.8810    -2.5570     1.6370 ca         1 38K      -0.138000
     12 C7           3.7390    -3.3440     0.8500 ca         1 38K      -0.083000
     13 C2           4.1990    -2.8750    -0.4020 ca         1 38K      -0.112600
     14 C1           5.1280    -3.7190    -1.2580 c          1 38K       0.713600
     15 O47          5.4690    -4.8190    -0.8430 o          1 38K      -0.708500
     16 O49          5.5040    -3.2700    -2.3320 o          1 38K      -0.708500
     17 C11          0.8730     3.4480     0.8240 ca         1 38K       0.454900
     18 N12         -0.4250     3.0940     0.8800 nb         1 38K      -0.721000
     19 C13         -0.7890     1.8650     0.4610 ca         1 38K       0.327000
     20 C14          0.1520     0.9360    -0.0330 ca         1 38K      -0.150000
     21 C18         -2.1470     1.5040     0.5150 ca         1 38K      -0.101000
     22 C17         -2.6080     0.2420     0.0750 cp         1 38K       0.012000
     23 C16         -1.6520    -0.6710    -0.4200 ca         1 38K      -0.112000
     24 C15         -0.2920    -0.3310    -0.4810 ca         1 38K      -0.073000
     25 C19         -4.0600    -0.1090     0.1640 cp         1 38K      -0.198000
     26 C20         -4.7880    -0.7460    -0.8740 ca         1 38K       0.397300
     27 O24         -4.1180    -1.0180    -2.0490 os         1 38K      -0.438300
     28 C25         -4.7770    -1.6660    -3.1540 c3         1 38K       0.156900
     29 N25         -6.0960    -1.0460    -0.7490 nb         1 38K      -0.295000
     30 C21         -6.7060    -0.7210     0.4040 ca         1 38K       0.391300
     31 O26         -8.0420    -1.0490     0.4900 os         1 38K      -0.437300
     32 C27         -8.8160    -0.7570     1.6720 c3         1 38K       0.165900
     33 N22         -6.1090    -0.1080     1.4480 nb         1 38K      -0.283000
     34 C23         -4.8040     0.1950     1.3250 ca         1 38K       0.168900
     35 H1           3.7380     1.2280     0.9260 hn         1 38K       0.480000
     36 H2           5.1410     1.9740     0.7490 hn         1 38K       0.480000
     37 H3           2.9540     0.7610    -1.3690 hn         1 38K       0.499000
     38 H4           4.1130    -1.2140    -1.8010 ha         1 38K       0.149000
     39 H5           1.8100    -0.6930     1.8040 ha         1 38K       0.095000
     40 H6           2.5360    -2.9270     2.6000 ha         1 38K       0.094000
     41 H7           4.0460    -4.3210     1.2190 ha         1 38K       0.137000
     42 H9           1.1000     4.4560     1.1710 h4         1 38K       0.032100
     43 H10         -2.8610     2.2270     0.8970 ha         1 38K       0.128000
     44 H11         -1.9650    -1.6570    -0.7530 ha         1 38K       0.118000
     45 H12          0.4050    -1.0620    -0.8820 ha         1 38K       0.116000
     46 H13         -4.0800    -1.7990    -3.9910 h1         1 38K       0.052033
     47 H14         -5.1490    -2.6570    -2.8620 h1         1 38K       0.052033
     48 H15         -5.6250    -1.0670    -3.5110 h1         1 38K       0.052033
     49 H16         -8.8340     0.3230     1.8720 h1         1 38K       0.048700
     50 H17         -9.8520    -1.0950     1.5430 h1         1 38K       0.048700
     51 H18         -8.3990    -1.2670     2.5500 h1         1 38K       0.048700
     52 H19         -4.3390     0.6830     2.1800 h4         1 38K       0.033100
@<TRIPOS>BOND
     1     1     2 2   
     2     2     3 2   
     3     2     4 1   
     4     2     5 1   
     5     4    35 1   
     6     4    36 1   
     7     5     6 ar  
     8     5    17 ar  
     9     6     7 1   
    10     6    20 ar  
    11     7     8 1   
    12     7    37 1   
    13     8     9 ar  
    14     8    10 ar  
    15     9    13 ar  
    16     9    38 1   
    17    10    11 ar  
    18    10    39 1   
    19    11    12 ar  
    20    11    40 1   
    21    12    13 ar  
    22    12    41 1   
    23    13    14 1   
    24    14    15 1   
    25    14    16 1   
    26    17    18 ar  
    27    17    42 1   
    28    18    19 ar  
    29    19    20 ar  
    30    19    21 ar  
    31    20    24 ar  
    32    21    22 ar  
    33    21    43 1   
    34    22    23 ar  
    35    22    25 1   
    36    23    24 ar  
    37    23    44 1   
    38    24    45 1   
    39    25    26 ar  
    40    25    34 ar  
    41    26    27 1   
    42    26    29 ar  
    43    27    28 1   
    44    28    46 1   
    45    28    47 1   
    46    28    48 1   
    47    29    30 ar  
    48    30    31 1   
    49    30    33 ar  
    50    31    32 1   
    51    32    49 1   
    52    32    50 1   
    53    32    51 1   
    54    33    34 ar  
    55    34    52 1   
@<TRIPOS>SUBSTRUCTURE
     1 38K         1 TEMP              0 ****  ****    0 ROOT
