@<TRIPOS>MOLECULE
38K
   52    55     1     0     0
SMALL
abcg2


@<TRIPOS>ATOM
      1 O30          3.3000     3.6530     0.4440 o          1 38K      -0.535000
      2 S28          3.3920     2.2050     0.3290 sy         1 38K       1.157600
      3 O29          3.9540     1.6190    -0.8720 o          1 38K      -0.535000
      4 N31          4.3440     1.7310     1.5790 n8         1 38K      -1.002100
      5 C10          1.7310     1.6050     0.5330 ca         1 38K      -0.460500
      6 C9           1.2360     0.4360    -0.0440 ca         1 38K       0.497000
      7 N8           2.0030    -0.5290    -0.6160 nu         1 38K      -0.957000
      8 C4           3.1690    -1.0930    -0.0690 ca         1 38K       0.214000
      9 C3           4.1600    -1.5630    -0.9230 ca         1 38K      -0.063000
     10 C5           3.3040    -1.2580     1.3070 ca         1 38K      -0.204000
     11 C6           4.4500    -1.8610     1.8120 ca         1 38K      -0.138000
     12 C7           5.4390    -2.3210     0.9560 ca         1 38K      -0.083000
     13 C2           5.2950    -2.1860    -0.4230 ca         1 38K      -0.112600
     14 C1           6.3740    -2.6960    -1.3750 c          1 38K       0.713600
     15 O47          7.3730    -3.2210    -0.8500 o          1 38K      -0.708500
     16 O49          6.1600    -2.5400    -2.5920 o          1 38K      -0.708500
     17 C11          0.8300     2.5070     1.1450 ca         1 38K       0.454900
     18 N12         -0.4600     2.3610     1.1790 nb         1 38K      -0.721000
     19 C13         -0.9860     1.2680     0.5700 ca         1 38K       0.327000
     20 C14         -0.1900     0.2730    -0.0370 ca         1 38K      -0.150000
     21 C18         -2.3880     1.1330     0.5690 ca         1 38K      -0.101000
     22 C17         -3.0030     0.0410     0.0040 cp         1 38K       0.012000
     23 C16         -2.1980    -0.9690    -0.5700 ca         1 38K      -0.112000
     24 C15         -0.8350    -0.8600    -0.5800 ca         1 38K      -0.073000
     25 C19         -4.4660    -0.0940     0.0590 cp         1 38K      -0.198000
     26 C20         -5.2670    -0.4180    -1.0580 ca         1 38K       0.397300
     27 O24         -4.6640    -0.5930    -2.2170 os         1 38K      -0.438300
     28 C25         -5.4550    -0.9020    -3.3620 c3         1 38K       0.156900
     29 N25         -6.5730    -0.5260    -0.9800 nb         1 38K      -0.295000
     30 C21         -7.1280    -0.3080     0.2070 ca         1 38K       0.391300
     31 O26         -8.4430    -0.4370     0.2060 os         1 38K      -0.437300
     32 C27         -9.1460    -0.2110     1.4230 c3         1 38K       0.165900
     33 N22         -6.5000     0.0100     1.3190 nb         1 38K      -0.283000
     34 C23         -5.1750     0.1110     1.2240 ca         1 38K       0.168900
     35 H1           4.0430     2.0820     2.4820 hn         1 38K       0.480000
     36 H2           4.5240     0.7330     1.6100 hn         1 38K       0.480000
     37 H3           1.5690    -1.0800    -1.3400 hn         1 38K       0.499000
     38 H4           4.0460    -1.4350    -1.9920 ha         1 38K       0.149000
     39 H5           2.5220    -0.9280     1.9800 ha         1 38K       0.095000
     40 H6           4.5570    -1.9820     2.8820 ha         1 38K       0.094000
     41 H7           6.3250    -2.7940     1.3580 ha         1 38K       0.137000
     42 H9           1.2190     3.4010     1.6170 h4         1 38K       0.032100
     43 H10         -2.9690     1.9280     1.0200 ha         1 38K       0.128000
     44 H11         -2.6570    -1.8590    -0.9790 ha         1 38K       0.118000
     45 H12         -0.2660    -1.6770    -1.0000 ha         1 38K       0.116000
     46 H13         -4.7560    -0.9730    -4.1900 h1         1 38K       0.052033
     47 H14         -5.9750    -1.8530    -3.2420 h1         1 38K       0.052033
     48 H15         -6.1860    -0.1200    -3.5660 h1         1 38K       0.052033
     49 H16         -8.9990     0.8050     1.7900 h1         1 38K       0.048700
     50 H17        -10.1970    -0.3620     1.1890 h1         1 38K       0.048700
     51 H18         -8.8430    -0.9140     2.1990 h1         1 38K       0.048700
     52 H19         -4.6460     0.3580     2.1380 h4         1 38K       0.033100
@<TRIPOS>BOND
     1     1     2 2   
     2     2     3 2   
     3     2     4 1   
     4     2     5 1   
     5     4    35 1   
     6     4    36 1   
     7     5     6 ar  
     8     5    17 ar  
     9     6     7 1   
    10     6    20 ar  
    11     7     8 1   
    12     7    37 1   
    13     8     9 ar  
    14     8    10 ar  
    15     9    13 ar  
    16     9    38 1   
    17    10    11 ar  
    18    10    39 1   
    19    11    12 ar  
    20    11    40 1   
    21    12    13 ar  
    22    12    41 1   
    23    13    14 1   
    24    14    15 1   
    25    14    16 1   
    26    17    18 ar  
    27    17    42 1   
    28    18    19 ar  
    29    19    20 ar  
    30    19    21 ar  
    31    20    24 ar  
    32    21    22 ar  
    33    21    43 1   
    34    22    23 ar  
    35    22    25 1   
    36    23    24 ar  
    37    23    44 1   
    38    24    45 1   
    39    25    26 ar  
    40    25    34 ar  
    41    26    27 1   
    42    26    29 ar  
    43    27    28 1   
    44    28    46 1   
    45    28    47 1   
    46    28    48 1   
    47    29    30 ar  
    48    30    31 1   
    49    30    33 ar  
    50    31    32 1   
    51    32    49 1   
    52    32    50 1   
    53    32    51 1   
    54    33    34 ar  
    55    34    52 1   
@<TRIPOS>SUBSTRUCTURE
     1 38K         1 TEMP              0 ****  ****    0 ROOT
