@<TRIPOS>MOLECULE
38L
   16    16     1     0     0
SMALL
No Charge or Current Charge


@<TRIPOS>ATOM
      1 OAK         -2.2870     0.2070     1.0520 o          1 38L      -0.385500
      2 NAG         -1.7380    -0.0230    -0.0340 no         1 38L       0.714200
      3 OAJ         -2.3440    -0.2580    -1.0880 o          1 38L      -0.385500
      4 CAA         -0.2680    -0.0160    -0.0740 ca         1 38L      -0.242200
      5 CAF          0.4380    -1.2280    -0.1230 ca         1 38L       0.220600
      6 OAH         -0.2260    -2.4180    -0.1220 oh         1 38L      -0.512100
      7 CAE          1.8410    -1.2200    -0.1620 ca         1 38L      -0.232000
      8 CAD          2.5400    -0.0020    -0.1520 ca         1 38L      -0.004000
      9 CAC          1.8310     1.2090    -0.1040 ca         1 38L      -0.232000
     10 CAB          0.4280     1.2030    -0.0640 ca         1 38L       0.220600
     11 OAI         -0.2460     2.3870    -0.0290 oh         1 38L      -0.512100
     12 H1           0.4380    -3.1390    -0.1600 ho         1 38L       0.483000
     13 H2           2.3980    -2.1530    -0.1980 ha         1 38L       0.129500
     14 H3           3.6290     0.0030    -0.1820 ha         1 38L       0.125000
     15 H4           2.3800     2.1470    -0.0980 ha         1 38L       0.129500
     16 H5           0.4110     3.1140    -0.0270 ho         1 38L       0.483000
@<TRIPOS>BOND
     1     1     2 1   
     2     2     3 1   
     3     2     4 1   
     4     4     5 ar  
     5     4    10 ar  
     6     5     6 1   
     7     5     7 ar  
     8     6    12 1   
     9     7     8 ar  
    10     7    13 1   
    11     8     9 ar  
    12     8    14 1   
    13     9    10 ar  
    14     9    15 1   
    15    10    11 1   
    16    11    16 1   
@<TRIPOS>SUBSTRUCTURE
     1 38L         1 TEMP              0 ****  ****    0 ROOT
