@<TRIPOS>MOLECULE
38L
   16    16     1     0     0
SMALL
abcg2


@<TRIPOS>ATOM
      1 OAK         -2.2410     0.5640     0.8090 o          1 38L      -0.385500
      2 NAG         -1.6630    -0.0330    -0.0700 no         1 38L       0.714200
      3 OAJ         -2.2080    -0.7850    -0.8420 o          1 38L      -0.385500
      4 CAA         -0.2190    -0.0160    -0.0490 ca         1 38L      -0.242200
      5 CAF          0.4810    -1.2290    -0.0710 ca         1 38L       0.220600
      6 OAH         -0.2120    -2.3840     0.0240 oh         1 38L      -0.512100
      7 CAE          1.8640    -1.2060    -0.0960 ca         1 38L      -0.232000
      8 CAD          2.5340     0.0100    -0.1080 ca         1 38L      -0.004000
      9 CAC          1.8470     1.2060    -0.0720 ca         1 38L      -0.232000
     10 CAB          0.4530     1.2100    -0.0340 ca         1 38L       0.220600
     11 OAI         -0.2550     2.3390    -0.0270 oh         1 38L      -0.512100
     12 H1           0.1070    -3.0080    -0.6390 ho         1 38L       0.483000
     13 H2           2.4310    -2.1280    -0.0990 ha         1 38L       0.129500
     14 H3           3.6160     0.0080    -0.1280 ha         1 38L       0.125000
     15 H4           2.3670     2.1560    -0.0730 ha         1 38L       0.129500
     16 H5           0.3230     3.1080    -0.0900 ho         1 38L       0.483000
@<TRIPOS>BOND
     1     1     2 1   
     2     2     3 1   
     3     2     4 1   
     4     4     5 ar  
     5     4    10 ar  
     6     5     6 1   
     7     5     7 ar  
     8     6    12 1   
     9     7     8 ar  
    10     7    13 1   
    11     8     9 ar  
    12     8    14 1   
    13     9    10 ar  
    14     9    15 1   
    15    10    11 1   
    16    11    16 1   
@<TRIPOS>SUBSTRUCTURE
     1 38L         1 TEMP              0 ****  ****    0 ROOT
