@<TRIPOS>MOLECULE
38M
   72    76     1     0     0
SMALL
bcc


@<TRIPOS>ATOM
      1 C           -0.7900    -4.6140     2.3860 ca         1 38M      -0.157000
      2 C1          -1.7140    -3.6000     2.6620 ca         1 38M      -0.089000
      3 C2          -1.5020    -2.3140     2.2160 ca         1 38M      -0.134000
      4 C3          -0.3540    -2.0060     1.4740 ca         1 38M       0.204400
      5 C4           0.5730    -3.0230     1.2090 ca         1 38M      -0.204600
      6 C5           0.3480    -4.3250     1.6660 ca         1 38M      -0.054000
      7 C6           1.7780    -2.7040     0.4590 c          1 38M       0.726100
      8 O            2.6550    -3.4890     0.1640 o          1 38M      -0.590500
      9 N            1.8730    -1.3660     0.0800 n          1 38M      -0.323500
     10 N7          -0.1690    -0.7180     1.0370 nc         1 38M      -0.663100
     11 C8           0.8950    -0.4450     0.3820 cd         1 38M       0.537800
     12 S            1.2300     1.1770    -0.1850 ss         1 38M      -0.122300
     13 C15         -0.3240     2.0010     0.2440 c3         1 38M      -0.079600
     14 C16         -1.4430     1.5130    -0.6810 c          1 38M       0.688100
     15 C17         -0.1120     3.5120     0.0770 c3         1 38M      -0.066400
     16 O18         -1.1690     1.0190    -1.7640 o          1 38M      -0.589100
     17 N19         -2.7090     1.7250    -0.2730 n          1 38M      -0.466800
     18 C20          0.9100     4.1090     1.0370 c3         1 38M      -0.080400
     19 C21          0.9370     5.6310     0.9710 c3         1 38M      -0.075400
     20 C22          1.9660     6.2410     1.9120 c3         1 38M      -0.089100
     21 C23         -3.1250     2.2740     1.0080 c6         1 38M       0.104000
     22 C24         -3.9650     1.2640     1.7760 c6         1 38M      -0.094400
     23 C25         -5.1300     0.7660     0.9270 c6         1 38M      -0.070400
     24 C26         -4.6750     0.2390    -0.4390 c6         1 38M      -0.062000
     25 C27         -3.8300     1.3310    -1.1100 c6         1 38M       0.105000
     26 C7          -5.9080    -0.0440    -1.3000 c6         1 38M       0.166800
     27 C18         -3.8820    -1.0640    -0.2810 c6         1 38M      -0.066400
     28 C19         -3.6200    -1.7650    -1.6090 c6         1 38M      -0.078400
     29 N1          -5.5350    -0.6250    -2.5760 n7         1 38M      -0.805200
     30 C35         -4.9070    -1.9240    -2.4020 c6         1 38M       0.157800
     31 C9           3.0320    -0.9700    -0.6550 ca         1 38M       0.026600
     32 C10          3.0280    -1.0520    -2.0380 ca         1 38M      -0.089000
     33 C11          4.1540    -0.6510    -2.7400 ca         1 38M      -0.116000
     34 C12          5.2710    -0.1750    -2.0680 ca         1 38M      -0.109000
     35 C13          5.2500    -0.1060    -0.6840 ca         1 38M       0.026400
     36 C14          4.1370    -0.5020     0.0400 ca         1 38M      -0.099000
     37 CL           6.6370     0.4890     0.1620 cl         1 38M      -0.105400
     38 H           -0.9680    -5.6200     2.7410 ha         1 38M       0.138000
     39 H1          -2.6040    -3.8270     3.2330 ha         1 38M       0.133000
     40 H2          -2.2110    -1.5260     2.4330 ha         1 38M       0.145000
     41 H5           1.0720    -5.1000     1.4520 ha         1 38M       0.154000
     42 H15         -0.5310     1.7670     1.2880 h1         1 38M       0.101700
     43 H17          0.1610     3.7350    -0.9580 hc         1 38M       0.058200
     44 H17A        -1.0760     4.0000     0.2460 hc         1 38M       0.058200
     45 H20          0.6760     3.7910     2.0590 hc         1 38M       0.047200
     46 H20A         1.9100     3.7230     0.8170 hc         1 38M       0.047200
     47 H21          1.1480     5.9460    -0.0560 hc         1 38M       0.038200
     48 H21A        -0.0570     6.0210     1.2110 hc         1 38M       0.038200
     49 H22          1.9620     7.3300     1.8540 hc         1 38M       0.033700
     50 H22A         1.7680     5.9630     2.9480 hc         1 38M       0.033700
     51 H22B         2.9740     5.9010     1.6670 hc         1 38M       0.033700
     52 H23         -2.2720     2.5900     1.6020 h1         1 38M       0.046200
     53 H23A        -3.7180     3.1750     0.8150 h1         1 38M       0.046200
     54 H24         -3.3300     0.4300     2.0860 hc         1 38M       0.049200
     55 H24A        -4.3340     1.7340     2.6890 hc         1 38M       0.049200
     56 H25         -5.6800    -0.0130     1.4620 hc         1 38M       0.040200
     57 H25A        -5.8340     1.5910     0.7710 hc         1 38M       0.040200
     58 H27         -4.4580     2.2140    -1.2780 h1         1 38M       0.068700
     59 H27A        -3.4630     1.0090    -2.0790 h1         1 38M       0.068700
     60 H7          -6.5810    -0.7040    -0.7230 h1         1 38M       0.028200
     61 H7A         -6.4540     0.8870    -1.4810 h1         1 38M       0.028200
     62 H18         -2.9350    -0.8830     0.2300 hc         1 38M       0.043700
     63 H18A        -4.4570    -1.7360     0.3680 hc         1 38M       0.043700
     64 H19         -2.8920    -1.2000    -2.1970 hc         1 38M       0.055700
     65 H19A        -3.1780    -2.7480    -1.4250 hc         1 38M       0.055700
     66 HN1         -6.3610    -0.7210    -3.1520 hn         1 38M       0.354800
     67 H35         -4.7000    -2.3530    -3.3850 h1         1 38M       0.027700
     68 H35A        -5.5650    -2.6350    -1.8730 h1         1 38M       0.027700
     69 H10          2.1520    -1.4190    -2.5560 ha         1 38M       0.156000
     70 H11          4.1650    -0.7070    -3.8190 ha         1 38M       0.143000
     71 H12          6.1470     0.1400    -2.6180 ha         1 38M       0.149000
     72 H14          4.1220    -0.4450     1.1200 ha         1 38M       0.158000
@<TRIPOS>BOND
     1     1     2 ar  
     2     1     6 ar  
     3     1    38 1   
     4     2     3 ar  
     5     2    39 1   
     6     3     4 ar  
     7     3    40 1   
     8     4     5 ar  
     9     4    10 1   
    10     5     6 ar  
    11     5     7 1   
    12     6    41 1   
    13     7     8 2   
    14     7     9 1   
    15     9    11 1   
    16     9    31 1   
    17    10    11 2   
    18    11    12 1   
    19    12    13 1   
    20    13    14 1   
    21    13    15 1   
    22    13    42 1   
    23    14    16 2   
    24    14    17 1   
    25    15    18 1   
    26    15    43 1   
    27    15    44 1   
    28    17    21 1   
    29    17    25 1   
    30    18    19 1   
    31    18    45 1   
    32    18    46 1   
    33    19    20 1   
    34    19    47 1   
    35    19    48 1   
    36    20    49 1   
    37    20    50 1   
    38    20    51 1   
    39    21    22 1   
    40    21    52 1   
    41    21    53 1   
    42    22    23 1   
    43    22    54 1   
    44    22    55 1   
    45    23    24 1   
    46    23    56 1   
    47    23    57 1   
    48    24    25 1   
    49    24    26 1   
    50    24    27 1   
    51    25    58 1   
    52    25    59 1   
    53    26    29 1   
    54    26    60 1   
    55    26    61 1   
    56    27    28 1   
    57    27    62 1   
    58    27    63 1   
    59    28    30 1   
    60    28    64 1   
    61    28    65 1   
    62    29    30 1   
    63    29    66 1   
    64    30    67 1   
    65    30    68 1   
    66    31    32 ar  
    67    31    36 ar  
    68    32    33 ar  
    69    32    69 1   
    70    33    34 ar  
    71    33    70 1   
    72    34    35 ar  
    73    34    71 1   
    74    35    36 ar  
    75    35    37 1   
    76    36    72 1   
@<TRIPOS>SUBSTRUCTURE
     1 38M         1 TEMP              0 ****  ****    0 ROOT
