@<TRIPOS>MOLECULE
38M
   72    76     1     0     0
SMALL
No Charge or Current Charge


@<TRIPOS>ATOM
      1 C           -1.5290    -4.4870     2.2430 ca         1 38M      -0.139000
      2 C1          -2.0340    -3.3980     2.9670 ca         1 38M      -0.071000
      3 C2          -1.4960    -2.1170     2.7650 ca         1 38M      -0.116000
      4 C3          -0.4560    -1.8980     1.8430 ca         1 38M       0.204400
      5 C4           0.0480    -3.0000     1.1230 ca         1 38M      -0.204600
      6 C5          -0.4880    -4.2910     1.3230 ca         1 38M      -0.036000
      7 C6           1.1500    -2.7780     0.1520 c          1 38M       0.583600
      8 O            1.6470    -3.6840    -0.5050 o          1 38M      -0.515000
      9 N            1.5770    -1.4670     0.0460 n          1 38M      -0.256500
     10 N7          -0.0080    -0.5800     1.6890 nc         1 38M      -0.663100
     11 C8           0.9640    -0.4560     0.7850 cd         1 38M       0.537800
     12 S            1.4990     1.2170     0.4860 ss         1 38M      -0.170200
     13 C15         -0.1040     2.1630     0.4730 c3         1 38M      -0.031700
     14 C16         -1.0950     1.5710    -0.5670 c          1 38M       0.621100
     15 C17          0.1520     3.6730     0.2380 c3         1 38M      -0.066400
     16 O18         -0.6790     0.9270    -1.5230 o          1 38M      -0.589100
     17 N19         -2.4880     1.7920    -0.4140 n          1 38M      -0.399800
     18 C20          0.8740     4.3720     1.4130 c3         1 38M      -0.080400
     19 C21          1.0830     5.8830     1.1780 c3         1 38M      -0.075400
     20 C22          1.8020     6.5810     2.3480 c3         1 38M      -0.089100
     21 C23         -3.1180     2.4830     0.7420 c6         1 38M       0.104000
     22 C24         -3.9480     1.4860     1.5830 c6         1 38M      -0.094400
     23 C25         -4.9840     0.7460     0.6940 c6         1 38M      -0.070400
     24 C26         -4.3300     0.0650    -0.5530 c6         1 38M      -0.062000
     25 C27         -3.4890     1.1460    -1.3100 c6         1 38M       0.105000
     26 C7          -5.4570    -0.4740    -1.4900 c6         1 38M       0.166800
     27 C18         -3.4410    -1.1440    -0.1060 c6         1 38M      -0.066400
     28 C19         -2.9380    -1.9850    -1.3060 c6         1 38M      -0.078400
     29 N1          -4.9200    -1.2460    -2.6380 n7         1 38M      -0.860400
     30 C35         -4.1140    -2.4140    -2.2140 c6         1 38M       0.157800
     31 C9           2.6050    -1.0210    -0.8490 ca         1 38M       0.026600
     32 C10          2.2950    -0.7380    -2.1940 ca         1 38M      -0.071000
     33 C11          3.3030    -0.3100    -3.0750 ca         1 38M      -0.098000
     34 C12          4.6250    -0.1730    -2.6170 ca         1 38M      -0.091000
     35 C13          4.9370    -0.4670    -1.2790 ca         1 38M       0.118000
     36 C14          3.9320    -0.8950    -0.3960 ca         1 38M      -0.081000
     37 Cl           6.5920    -0.3010    -0.7070 cl         1 38M      -0.197000
     38 H           -1.9420    -5.4820     2.3950 ha         1 38M       0.120000
     39 H1          -2.8410    -3.5440     3.6810 ha         1 38M       0.115000
     40 H2          -1.8970    -1.2770     3.3260 ha         1 38M       0.127000
     41 H5          -0.1010    -5.1430     0.7670 ha         1 38M       0.136000
     42 H15         -0.5540     2.0240     1.4620 h1         1 38M       0.101700
     43 H17          0.7360     3.8000    -0.6830 hc         1 38M       0.058200
     44 H17A        -0.8060     4.1800     0.0680 hc         1 38M       0.058200
     45 H20          0.2910     4.2270     2.3310 hc         1 38M       0.047200
     46 H20A         1.8510     3.9000     1.5780 hc         1 38M       0.047200
     47 H21          1.6660     6.0320     0.2610 hc         1 38M       0.038200
     48 H21A         0.1100     6.3650     1.0200 hc         1 38M       0.038200
     49 H22          1.9280     7.6500     2.1370 hc         1 38M       0.033700
     50 H22A         1.2250     6.4800     3.2750 hc         1 38M       0.033700
     51 H22B         2.7960     6.1450     2.5090 hc         1 38M       0.033700
     52 H23         -2.3840     2.9840     1.3830 h1         1 38M       0.046200
     53 H23A        -3.7840     3.2690     0.3570 h1         1 38M       0.046200
     54 H24         -3.2800     0.7660     2.0730 hc         1 38M       0.049200
     55 H24A        -4.4660     2.0240     2.3880 hc         1 38M       0.049200
     56 H25         -5.5240     0.0030     1.2960 hc         1 38M       0.040200
     57 H25A        -5.7410     1.4710     0.3600 hc         1 38M       0.040200
     58 H27         -4.1650     1.9250    -1.6930 h1         1 38M       0.068700
     59 H27A        -3.0040     0.7050    -2.1910 h1         1 38M       0.068700
     60 H7          -6.1330    -1.1210    -0.9110 h1         1 38M       0.028200
     61 H7A         -6.0570     0.3660    -1.8690 h1         1 38M       0.028200
     62 H18         -2.5800    -0.7950     0.4730 hc         1 38M       0.043700
     63 H18A        -4.0150    -1.7970     0.5660 hc         1 38M       0.043700
     64 H19         -2.2050    -1.4150    -1.8920 hc         1 38M       0.055700
     65 H19A        -2.4100    -2.8760    -0.9400 hc         1 38M       0.055700
     66 HN1         -5.7080    -1.5800    -3.2070 hn         1 38M       0.410000
     67 H35         -3.7250    -2.9340    -3.1010 h1         1 38M       0.027700
     68 H35A        -4.7570    -3.1200    -1.6680 h1         1 38M       0.027700
     69 H10          1.2730    -0.8430    -2.5500 ha         1 38M       0.138000
     70 H11          3.0590    -0.0860    -4.1120 ha         1 38M       0.125000
     71 H12          5.4060     0.1580    -3.2960 ha         1 38M       0.131000
     72 H14          4.1820    -1.1240     0.6360 ha         1 38M       0.140000
@<TRIPOS>BOND
     1     1     2 ar  
     2     1     6 ar  
     3     1    38 1   
     4     2     3 ar  
     5     2    39 1   
     6     3     4 ar  
     7     3    40 1   
     8     4     5 ar  
     9     4    10 1   
    10     5     6 ar  
    11     5     7 1   
    12     6    41 1   
    13     7     8 2   
    14     7     9 1   
    15     9    11 1   
    16     9    31 1   
    17    10    11 2   
    18    11    12 1   
    19    12    13 1   
    20    13    14 1   
    21    13    15 1   
    22    13    42 1   
    23    14    16 2   
    24    14    17 1   
    25    15    18 1   
    26    15    43 1   
    27    15    44 1   
    28    17    21 1   
    29    17    25 1   
    30    18    19 1   
    31    18    45 1   
    32    18    46 1   
    33    19    20 1   
    34    19    47 1   
    35    19    48 1   
    36    20    49 1   
    37    20    50 1   
    38    20    51 1   
    39    21    22 1   
    40    21    52 1   
    41    21    53 1   
    42    22    23 1   
    43    22    54 1   
    44    22    55 1   
    45    23    24 1   
    46    23    56 1   
    47    23    57 1   
    48    24    25 1   
    49    24    26 1   
    50    24    27 1   
    51    25    58 1   
    52    25    59 1   
    53    26    29 1   
    54    26    60 1   
    55    26    61 1   
    56    27    28 1   
    57    27    62 1   
    58    27    63 1   
    59    28    30 1   
    60    28    64 1   
    61    28    65 1   
    62    29    30 1   
    63    29    66 1   
    64    30    67 1   
    65    30    68 1   
    66    31    32 ar  
    67    31    36 ar  
    68    32    33 ar  
    69    32    69 1   
    70    33    34 ar  
    71    33    70 1   
    72    34    35 ar  
    73    34    71 1   
    74    35    36 ar  
    75    35    37 1   
    76    36    72 1   
@<TRIPOS>SUBSTRUCTURE
     1 38M         1 TEMP              0 ****  ****    0 ROOT
