@<TRIPOS>MOLECULE
38N
   90    92     1     0     0
SMALL
abcg2


@<TRIPOS>ATOM
      1 C2          -4.2870    -1.0390    -0.4450 c          1 38N       0.606100
      2 O3          -4.3400    -1.4150     0.7120 o          1 38N      -0.587100
      3 C4          -5.3730    -0.1990    -1.1020 c3         1 38N       0.080800
      4 N5          -6.6360    -0.2670    -0.4200 n3         1 38N      -0.697600
      5 O8          -9.4550    -0.5550    -0.2230 os         1 38N      -0.450000
      6 C6          -7.2770    -1.5620    -0.5670 c6         1 38N       0.122300
      7 C10         -7.5400     0.7760    -0.8720 c6         1 38N       0.122300
      8 C7          -8.5850    -1.5810     0.2010 c6         1 38N       0.154100
      9 C9          -8.8380     0.7070    -0.0920 c6         1 38N       0.154100
     10 N1          -3.2550    -1.3020    -1.2730 ns         1 38N      -0.498900
     11 C11         -1.9940    -1.8530    -0.8480 c3         1 38N       0.034700
     12 C13         -0.9380    -0.7470    -0.8520 c          1 38N       0.586100
     13 O14         -0.9500     0.1270    -1.7020 o          1 38N      -0.608100
     14 C12         -1.5510    -2.9850    -1.7710 c3         1 38N      -0.101100
     15 N15          0.0060    -0.8600     0.0980 ns         1 38N      -0.482900
     16 C16          1.0140     0.1410     0.3240 c3         1 38N       0.029700
     17 C17          0.6980     0.9830     1.5800 c3         1 38N      -0.039100
     18 C18         -0.6860     1.5570     1.5230 ca         1 38N      -0.127300
     19 C25         -0.9600     2.7370     0.8320 ca         1 38N      -0.065000
     20 C24         -2.2480     3.2290     0.7310 ca         1 38N      -0.165500
     21 C21         -3.3110     2.5390     1.3200 ca         1 38N       0.136100
     22 O22         -4.5380     3.0810     1.1720 os         1 38N      -0.349100
     23 C23         -5.6290     2.4480     1.8120 c3         1 38N       0.134900
     24 C20         -3.0560     1.3610     2.0120 ca         1 38N      -0.165500
     25 C19         -1.7540     0.8860     2.1030 ca         1 38N      -0.065000
     26 C26          2.3690    -0.5230     0.5110 c          1 38N       0.593100
     27 O27          2.4930    -1.5500     1.1600 o          1 38N      -0.607100
     28 N28          3.4050     0.1250    -0.0440 ns         1 38N      -0.480900
     29 C29          4.7630    -0.2350     0.2560 c3         1 38N       0.009700
     30 C30          5.7300     0.4630    -0.7060 c3         1 38N      -0.082400
     31 C41          5.5160     0.1220    -2.1830 c6         1 38N      -0.058700
     32 C42          5.5960    -1.3780    -2.4620 c6         1 38N      -0.072900
     33 C43          5.4430    -1.6850    -3.9490 c6         1 38N      -0.072900
     34 C44          6.4640    -0.9230    -4.7870 c6         1 38N      -0.075400
     35 C45          6.3810     0.5760    -4.5200 c6         1 38N      -0.072900
     36 C46          6.5370     0.8790    -3.0340 c6         1 38N      -0.072900
     37 C31          5.1290     0.1390     1.6870 c          1 38N       0.559100
     38 O32          4.5170     0.9870     2.2910 o          1 38N      -0.516100
     39 C37          6.2830    -0.6230     2.2950 c3         1 38N      -0.164700
     40 C38          5.6990    -1.8040     3.0820 c3         1 38N      -0.082100
     41 C39          7.1470     0.2860     3.1570 c3         1 38N       0.172600
     42 O40          8.2460    -0.4620     3.6230 oh         1 38N      -0.662000
     43 H1          -5.0170     0.8380    -1.0790 h1         1 38N       0.054200
     44 H2          -5.4540    -0.4670    -2.1690 h1         1 38N       0.054200
     45 H6          -7.4680    -1.7960    -1.6290 h1         1 38N       0.045450
     46 H7          -6.6340    -2.3480    -0.1690 h1         1 38N       0.045450
     47 H4          -7.0830     1.7550    -0.7110 h1         1 38N       0.045450
     48 H5          -7.7540     0.6930    -1.9520 h1         1 38N       0.045450
     49 H10         -8.3740    -1.4850     1.2760 h1         1 38N       0.052450
     50 H11         -9.0980    -2.5310     0.0420 h1         1 38N       0.052450
     51 H8          -9.5400     1.4550    -0.4620 h1         1 38N       0.052450
     52 H9          -8.6350     0.9250     0.9670 h1         1 38N       0.052450
     53 H12         -3.2810    -0.9070    -2.2010 hn         1 38N       0.323500
     54 H13         -2.1270    -2.2420     0.1620 h1         1 38N       0.090700
     55 H14         -1.4300    -2.6290    -2.7950 hc         1 38N       0.050033
     56 H15         -0.6010    -3.4070    -1.4450 hc         1 38N       0.050033
     57 H16         -2.2950    -3.7810    -1.7710 hc         1 38N       0.050033
     58 H17         -0.0860    -1.5860     0.7920 hn         1 38N       0.331500
     59 H18          1.0280     0.7950    -0.5480 h1         1 38N       0.090700
     60 H19          0.8010     0.3460     2.4630 hc         1 38N       0.064200
     61 H20          1.4510     1.7700     1.6660 hc         1 38N       0.064200
     62 H21         -0.1500     3.2830     0.3610 ha         1 38N       0.110500
     63 H27         -1.5770    -0.0350     2.6440 ha         1 38N       0.110500
     64 H22         -2.4420     4.1490     0.1940 ha         1 38N       0.129000
     65 H26         -3.8520     0.7930     2.4710 ha         1 38N       0.129000
     66 H23         -5.7970     1.4330     1.4380 h1         1 38N       0.047033
     67 H24         -5.4950     2.4060     2.8970 h1         1 38N       0.047033
     68 H25         -6.5060     3.0530     1.5950 h1         1 38N       0.047033
     69 H28          3.2340     1.0060    -0.5030 hn         1 38N       0.323500
     70 H29          4.8830    -1.3170     0.1510 h1         1 38N       0.093700
     71 H30          5.6490     1.5470    -0.5690 hc         1 38N       0.052200
     72 H31          6.7520     0.1930    -0.4250 hc         1 38N       0.052200
     73 H32          4.5180     0.4680    -2.4830 hc         1 38N       0.049700
     74 H33          6.5630    -1.7580    -2.1070 hc         1 38N       0.039950
     75 H34          4.8260    -1.9130    -1.9000 hc         1 38N       0.039950
     76 H35          5.5370    -2.7600    -4.1180 hc         1 38N       0.040700
     77 H36          4.4330    -1.4070    -4.2700 hc         1 38N       0.040700
     78 H37          7.4700    -1.2790    -4.5400 hc         1 38N       0.039700
     79 H38          6.3120    -1.1300    -5.8490 hc         1 38N       0.039700
     80 H39          7.1460     1.1060    -5.0910 hc         1 38N       0.040700
     81 H40          5.4140     0.9540    -4.8690 hc         1 38N       0.040700
     82 H41          6.4430     1.9540    -2.8550 hc         1 38N       0.039950
     83 H42          7.5470     0.5970    -2.7110 hc         1 38N       0.039950
     84 H45          6.8960    -1.0270     1.4820 hc         1 38N       0.069700
     85 H46          5.1010    -1.4500     3.9230 hc         1 38N       0.049367
     86 H47          5.0620    -2.4270     2.4540 hc         1 38N       0.049367
     87 H48          6.4990    -2.4320     3.4700 hc         1 38N       0.049367
     88 H49          7.4750     1.1480     2.5600 h1         1 38N       0.028700
     89 H50          6.5460     0.6780     3.9860 h1         1 38N       0.028700
     90 H51          8.7580     0.0960     4.2150 ho         1 38N       0.446000
@<TRIPOS>BOND
     1     1     2 2   
     2     1     3 1   
     3     1    10 1   
     4     3     4 1   
     5     3    43 1   
     6     3    44 1   
     7     4     6 1   
     8     4     7 1   
     9     5     8 1   
    10     5     9 1   
    11     6     8 1   
    12     6    45 1   
    13     6    46 1   
    14     7     9 1   
    15     7    47 1   
    16     7    48 1   
    17     8    49 1   
    18     8    50 1   
    19     9    51 1   
    20     9    52 1   
    21    10    11 1   
    22    10    53 1   
    23    11    12 1   
    24    11    14 1   
    25    11    54 1   
    26    12    13 2   
    27    12    15 1   
    28    14    55 1   
    29    14    56 1   
    30    14    57 1   
    31    15    16 1   
    32    15    58 1   
    33    16    17 1   
    34    16    26 1   
    35    16    59 1   
    36    17    18 1   
    37    17    60 1   
    38    17    61 1   
    39    18    19 ar  
    40    18    25 ar  
    41    19    20 ar  
    42    19    62 1   
    43    20    21 ar  
    44    20    64 1   
    45    21    22 1   
    46    21    24 ar  
    47    22    23 1   
    48    23    66 1   
    49    23    67 1   
    50    23    68 1   
    51    24    25 ar  
    52    24    65 1   
    53    25    63 1   
    54    26    27 2   
    55    26    28 1   
    56    28    29 1   
    57    28    69 1   
    58    29    30 1   
    59    29    37 1   
    60    29    70 1   
    61    30    31 1   
    62    30    71 1   
    63    30    72 1   
    64    31    32 1   
    65    31    36 1   
    66    31    73 1   
    67    32    33 1   
    68    32    74 1   
    69    32    75 1   
    70    33    34 1   
    71    33    76 1   
    72    33    77 1   
    73    34    35 1   
    74    34    78 1   
    75    34    79 1   
    76    35    36 1   
    77    35    80 1   
    78    35    81 1   
    79    36    82 1   
    80    36    83 1   
    81    37    38 2   
    82    37    39 1   
    83    39    40 1   
    84    39    41 1   
    85    39    84 1   
    86    40    85 1   
    87    40    86 1   
    88    40    87 1   
    89    41    42 1   
    90    41    88 1   
    91    41    89 1   
    92    42    90 1   
@<TRIPOS>SUBSTRUCTURE
     1 38N         1 TEMP              0 ****  ****    0 ROOT
