@<TRIPOS>MOLECULE
38N
   90    92     1     0     0
SMALL
No Charge or Current Charge


@<TRIPOS>ATOM
      1 C2          -4.5400    -0.7900    -0.9270 c          1 38N       0.606100
      2 O3          -4.7230    -1.8200    -0.2880 o          1 38N      -0.587100
      3 C4          -5.6610     0.2370    -1.2820 c3         1 38N       0.080800
      4 N5          -7.0730    -0.0330    -0.8480 n3         1 38N      -0.697600
      5 O8          -9.9480    -0.2790    -1.1990 os         1 38N      -0.450000
      6 C6          -7.6890    -1.2220    -1.5180 c6         1 38N       0.122300
      7 C10         -7.9590     1.1650    -0.9830 c6         1 38N       0.122300
      8 C7          -9.1450    -1.4710    -1.0220 c6         1 38N       0.154100
      9 C9          -9.4080     0.8670    -0.4970 c6         1 38N       0.154100
     10 N1          -3.2860    -0.4350    -1.3790 ns         1 38N      -0.498900
     11 C11         -2.0400    -1.1810    -1.1030 c3         1 38N       0.034700
     12 C13         -0.8530    -0.1870    -0.9820 c          1 38N       0.586100
     13 O14         -0.8590     0.9230    -1.5030 o          1 38N      -0.608100
     14 C12         -1.7920    -2.2500    -2.1890 c3         1 38N      -0.101100
     15 N15          0.1990    -0.6250    -0.2040 ns         1 38N      -0.482900
     16 C16          1.2380     0.2650     0.3670 c3         1 38N       0.029700
     17 C17          0.8170     0.7610     1.7820 c3         1 38N      -0.039100
     18 C18         -0.6540     1.1660     1.8660 ca         1 38N      -0.127300
     19 C25         -1.0740     2.4270     1.4040 ca         1 38N      -0.065000
     20 C24         -2.4390     2.7650     1.4110 ca         1 38N      -0.165500
     21 C21         -3.3970     1.8500     1.8770 ca         1 38N       0.136100
     22 O22         -4.7240     2.2290     1.8400 os         1 38N      -0.349100
     23 C23         -5.7820     1.3600     2.2840 c3         1 38N       0.134900
     24 C20         -2.9780     0.5900     2.3540 ca         1 38N      -0.165500
     25 C19         -1.6130     0.2540     2.3510 ca         1 38N      -0.065000
     26 C26          2.6220    -0.4410     0.3980 c          1 38N       0.593100
     27 O27          2.7630    -1.6430     0.2110 o          1 38N      -0.607100
     28 N28          3.6920     0.3890     0.6640 ns         1 38N      -0.480900
     29 C29          5.1140    -0.0290     0.7110 c3         1 38N       0.009700
     30 C30          5.8670     0.3680    -0.5900 c3         1 38N      -0.082400
     31 C41          5.3700    -0.2990    -1.9110 c6         1 38N      -0.058700
     32 C42          5.6070    -1.8380    -1.9250 c6         1 38N      -0.072900
     33 C43          5.1160    -2.4770    -3.2480 c6         1 38N      -0.072900
     34 C44          5.7860    -1.8140    -4.4750 c6         1 38N      -0.075400
     35 C45          5.5600    -0.2830    -4.4720 c6         1 38N      -0.072900
     36 C46          6.0510     0.3530    -3.1480 c6         1 38N      -0.072900
     37 C31          5.8090     0.5590     1.9730 c          1 38N       0.559100
     38 O32          5.3470     1.5190     2.5830 o          1 38N      -0.516100
     39 C37          7.1010    -0.1390     2.4390 c3         1 38N      -0.164700
     40 C38          6.9080    -0.7880     3.8350 c3         1 38N      -0.082100
     41 C39          8.2790     0.8580     2.3880 c3         1 38N       0.172600
     42 O40          9.5140     0.1640     2.5920 oh         1 38N      -0.662000
     43 H1          -5.3280     1.1890    -0.8470 h1         1 38N       0.054200
     44 H2          -5.6300     0.3730    -2.3720 h1         1 38N       0.054200
     45 H6          -7.7110    -1.0770    -2.6080 h1         1 38N       0.045450
     46 H7          -7.0980    -2.1290    -1.3270 h1         1 38N       0.045450
     47 H4          -7.5570     2.0060    -0.3990 h1         1 38N       0.045450
     48 H5          -8.0000     1.4930    -2.0330 h1         1 38N       0.045450
     49 H10         -9.1360    -1.7480     0.0420 h1         1 38N       0.052450
     50 H11         -9.5970    -2.2980    -1.5870 h1         1 38N       0.052450
     51 H8         -10.0520     1.7380    -0.6810 h1         1 38N       0.052450
     52 H9          -9.4070     0.6630     0.5840 h1         1 38N       0.052450
     53 H12         -3.2090     0.4490    -1.8720 hn         1 38N       0.323500
     54 H13         -2.1370    -1.6790    -0.1290 h1         1 38N       0.090700
     55 H14         -1.6810    -1.7830    -3.1750 hc         1 38N       0.050033
     56 H15         -0.8800    -2.8180    -1.9720 hc         1 38N       0.050033
     57 H16         -2.6300    -2.9560    -2.2340 hc         1 38N       0.050033
     58 H17          0.1520    -1.5790     0.1370 hn         1 38N       0.331500
     59 H18          1.3480     1.1390    -0.2880 h1         1 38N       0.090700
     60 H19          1.0170    -0.0380     2.5070 hc         1 38N       0.064200
     61 H20          1.4580     1.6000     2.0790 hc         1 38N       0.064200
     62 H21         -0.3460     3.1380     1.0180 ha         1 38N       0.110500
     63 H27         -1.3040    -0.7270     2.7050 ha         1 38N       0.110500
     64 H22         -2.7570     3.7360     1.0410 ha         1 38N       0.129000
     65 H26         -3.6930    -0.1410     2.7210 ha         1 38N       0.129000
     66 H23         -5.7870     0.4240     1.7120 h1         1 38N       0.047033
     67 H24         -5.6690     1.1200     3.3480 h1         1 38N       0.047033
     68 H25         -6.7560     1.8460     2.1460 h1         1 38N       0.047033
     69 H28          3.4790     1.3660     0.8370 hn         1 38N       0.323500
     70 H29          5.1590    -1.1190     0.8300 h1         1 38N       0.093700
     71 H30          5.8060     1.4590    -0.6890 hc         1 38N       0.052200
     72 H31          6.9330     0.1420    -0.4640 hc         1 38N       0.052200
     73 H32          4.2900    -0.1070    -1.9820 hc         1 38N       0.049700
     74 H33          6.6760    -2.0520    -1.7900 hc         1 38N       0.039950
     75 H34          5.0880    -2.3170    -1.0860 hc         1 38N       0.039950
     76 H35          5.3300    -3.5540    -3.2430 hc         1 38N       0.040700
     77 H36          4.0240    -2.3770    -3.3230 hc         1 38N       0.040700
     78 H37          6.8640    -2.0290    -4.4690 hc         1 38N       0.039700
     79 H38          5.3860    -2.2490    -5.4000 hc         1 38N       0.039700
     80 H39          6.0860     0.1730    -5.3220 hc         1 38N       0.040700
     81 H40          4.4920    -0.0660    -4.6130 hc         1 38N       0.040700
     82 H41          5.8430     1.4320    -3.1650 hc         1 38N       0.039950
     83 H42          7.1420     0.2480    -3.0720 hc         1 38N       0.039950
     84 H45          7.3160    -0.9470     1.7290 hc         1 38N       0.069700
     85 H46          6.7150    -0.0260     4.6000 hc         1 38N       0.049367
     86 H47          6.0590    -1.4830     3.8240 hc         1 38N       0.049367
     87 H48          7.8000    -1.3530     4.1330 hc         1 38N       0.049367
     88 H49          8.2880     1.3550     1.4090 h1         1 38N       0.028700
     89 H50          8.1400     1.6320     3.1550 h1         1 38N       0.028700
     90 H51         10.2300     0.8380     2.5670 ho         1 38N       0.446000
@<TRIPOS>BOND
     1     1     2 2   
     2     1     3 1   
     3     1    10 1   
     4     3     4 1   
     5     3    43 1   
     6     3    44 1   
     7     4     6 1   
     8     4     7 1   
     9     5     8 1   
    10     5     9 1   
    11     6     8 1   
    12     6    45 1   
    13     6    46 1   
    14     7     9 1   
    15     7    47 1   
    16     7    48 1   
    17     8    49 1   
    18     8    50 1   
    19     9    51 1   
    20     9    52 1   
    21    10    11 1   
    22    10    53 1   
    23    11    12 1   
    24    11    14 1   
    25    11    54 1   
    26    12    13 2   
    27    12    15 1   
    28    14    55 1   
    29    14    56 1   
    30    14    57 1   
    31    15    16 1   
    32    15    58 1   
    33    16    17 1   
    34    16    26 1   
    35    16    59 1   
    36    17    18 1   
    37    17    60 1   
    38    17    61 1   
    39    18    19 ar  
    40    18    25 ar  
    41    19    20 ar  
    42    19    62 1   
    43    20    21 ar  
    44    20    64 1   
    45    21    22 1   
    46    21    24 ar  
    47    22    23 1   
    48    23    66 1   
    49    23    67 1   
    50    23    68 1   
    51    24    25 ar  
    52    24    65 1   
    53    25    63 1   
    54    26    27 2   
    55    26    28 1   
    56    28    29 1   
    57    28    69 1   
    58    29    30 1   
    59    29    37 1   
    60    29    70 1   
    61    30    31 1   
    62    30    71 1   
    63    30    72 1   
    64    31    32 1   
    65    31    36 1   
    66    31    73 1   
    67    32    33 1   
    68    32    74 1   
    69    32    75 1   
    70    33    34 1   
    71    33    76 1   
    72    33    77 1   
    73    34    35 1   
    74    34    78 1   
    75    34    79 1   
    76    35    36 1   
    77    35    80 1   
    78    35    81 1   
    79    36    82 1   
    80    36    83 1   
    81    37    38 2   
    82    37    39 1   
    83    39    40 1   
    84    39    41 1   
    85    39    84 1   
    86    40    85 1   
    87    40    86 1   
    88    40    87 1   
    89    41    42 1   
    90    41    88 1   
    91    41    89 1   
    92    42    90 1   
@<TRIPOS>SUBSTRUCTURE
     1 38N         1 TEMP              0 ****  ****    0 ROOT
