@<TRIPOS>MOLECULE
38O
   50    54     1     0     0
SMALL
No Charge or Current Charge


@<TRIPOS>ATOM
      1 C1           8.7700     1.8300    -0.1090 c3         1 38O       0.153100
      2 C3           7.2080     0.0350    -0.7870 c6         1 38O       0.157800
      3 C4           6.0040    -0.8710    -0.3650 c6         1 38O       0.194800
      4 C6           5.2030     0.9620     1.1280 c6         1 38O       0.194800
      5 C7           6.4230     1.8290     0.6760 c6         1 38O       0.157800
      6 C8           3.5190    -0.6280     0.1180 ca         1 38O       0.272000
      7 C12         -1.0370    -0.6550     0.0180 cc         1 38O       0.542100
      8 N13         -0.3970    -1.8870     0.0950 na         1 38O      -0.296600
      9 C15          2.0090    -2.5740     0.1780 ca         1 38O      -0.080000
     10 C16          3.3120    -2.0330     0.1790 ca         1 38O      -0.155000
     11 C17         -2.4890    -0.5550    -0.0110 cc         1 38O      -0.433800
     12 C18         -3.1360     0.6760    -0.1010 cd         1 38O       0.355800
     13 C21         -5.3500     1.9850    -0.1550 ca         1 38O       0.233000
     14 C23         -6.7550     1.9790    -0.1480 ca         1 38O      -0.198000
     15 C24         -7.4610     0.7710    -0.0790 ca         1 38O      -0.020000
     16 N2           7.6060     1.0060     0.2770 n3         1 38O      -0.714600
     17 N5           4.8260    -0.0790     0.1170 nh         1 38O      -0.783400
     18 C9           2.3980     0.2330     0.0520 ca         1 38O      -0.115000
     19 C10          1.1150    -0.3260     0.0520 ca         1 38O       0.118400
     20 N11         -0.1090     0.3320    -0.0080 nd         1 38O      -0.687100
     21 C14          0.9440    -1.6720     0.1130 ca         1 38O      -0.103200
     22 N19         -2.4050     1.8070    -0.2210 nv         1 38O      -0.943000
     23 C20         -4.6150     0.7690    -0.0940 ca         1 38O      -0.211800
     24 F22         -4.7390     3.1910    -0.2120 f          1 38O      -0.179000
     25 C25         -6.7500    -0.4340    -0.0140 ca         1 38O      -0.193000
     26 C26         -5.3470    -0.4230    -0.0210 ca         1 38O       0.152600
     27 N27         -4.6480    -1.6200     0.0470 ns         1 38O      -0.372100
     28 C28         -3.3000    -1.7980     0.0640 c          1 38O       0.606200
     29 H1           8.5410     2.4470    -0.9880 h1         1 38O       0.030033
     30 H2           9.0620     2.4980     0.7130 h1         1 38O       0.030033
     31 H3           9.6320     1.1940    -0.3500 h1         1 38O       0.030033
     32 H4           8.0580    -0.6140    -1.0460 h1         1 38O       0.038200
     33 H5           6.9290     0.5760    -1.7030 h1         1 38O       0.038200
     34 H6           5.7200    -1.4870    -1.2310 h1         1 38O       0.042950
     35 H7           6.3410    -1.5550     0.4280 h1         1 38O       0.042950
     36 H8           5.4550     0.4720     2.0800 h1         1 38O       0.042950
     37 H9           4.3580     1.6360     1.3290 h1         1 38O       0.042950
     38 H10          6.1050     2.4610    -0.1670 h1         1 38O       0.038200
     39 H11          6.6920     2.5080     1.4990 h1         1 38O       0.038200
     40 H12         -0.8890    -2.7720     0.1340 hn         1 38O       0.392000
     41 H13          1.8430    -3.6480     0.2280 ha         1 38O       0.117000
     42 H14          4.1580    -2.7110     0.2390 ha         1 38O       0.111000
     43 H15         -7.2960     2.9210    -0.1940 ha         1 38O       0.141000
     44 H16         -8.5500     0.7690    -0.0730 ha         1 38O       0.125000
     45 H18          2.5240     1.3090    -0.0100 ha         1 38O       0.124000
     46 H20         -2.8370     2.7160    -0.0850 hn         1 38O       0.532000
     47 H21         -1.3900     1.7290    -0.1170 hn         1 38O       0.532000
     48 H22         -7.2910    -1.3750     0.0420 ha         1 38O       0.129000
     49 H23         -5.1960    -2.4680     0.0980 hn         1 38O       0.333500
     50 O29         -2.8560    -2.9320     0.1380 o          1 38O      -0.606000
@<TRIPOS>BOND
     1     1    16 1   
     2     1    29 1   
     3     1    30 1   
     4     1    31 1   
     5     2     3 1   
     6     2    16 1   
     7     2    32 1   
     8     2    33 1   
     9     3    17 1   
    10     3    34 1   
    11     3    35 1   
    12     4     5 1   
    13     4    17 1   
    14     4    36 1   
    15     4    37 1   
    16     5    16 1   
    17     5    38 1   
    18     5    39 1   
    19     6    10 ar  
    20     6    17 1   
    21     6    18 ar  
    22     7     8 1   
    23     7    11 1   
    24     7    20 2   
    25     8    21 1   
    26     8    40 1   
    27     9    10 ar  
    28     9    21 ar  
    29     9    41 1   
    30    10    42 1   
    31    11    12 2   
    32    11    28 1   
    33    12    22 1   
    34    12    23 1   
    35    13    14 ar  
    36    13    23 ar  
    37    13    24 1   
    38    14    15 ar  
    39    14    43 1   
    40    15    25 ar  
    41    15    44 1   
    42    18    19 ar  
    43    18    45 1   
    44    19    20 1   
    45    19    21 ar  
    46    22    46 1   
    47    22    47 1   
    48    23    26 ar  
    49    25    26 ar  
    50    25    48 1   
    51    26    27 1   
    52    27    28 1   
    53    27    49 1   
    54    28    50 2   
@<TRIPOS>SUBSTRUCTURE
     1 38O         1 TEMP              0 ****  ****    0 ROOT
