@<TRIPOS>MOLECULE
38O
   50    54     1     0     0
SMALL
abcg2


@<TRIPOS>ATOM
      1 C1           8.6360     1.7140     0.1290 c3         1 38O       0.153100
      2 C3           7.1690    -0.0500    -0.5570 c6         1 38O       0.157800
      3 C4           5.9170    -0.8340    -0.2090 c6         1 38O       0.194800
      4 C6           5.0100     1.1370     0.8180 c6         1 38O       0.194800
      5 C7           6.2720     1.8930     0.4510 c6         1 38O       0.157800
      6 C8           3.4970    -0.5440    -0.0730 ca         1 38O       0.272000
      7 C12         -1.0060    -0.7520    -0.0490 cc         1 38O       0.542100
      8 N13         -0.3760    -1.9550    -0.0170 na         1 38O      -0.296600
      9 C15          2.0840    -2.5500    -0.0090 ca         1 38O      -0.080000
     10 C16          3.3330    -1.9460    -0.0170 ca         1 38O      -0.155000
     11 C17         -2.4510    -0.6070    -0.0290 cc         1 38O      -0.433800
     12 C18         -3.0480     0.6670    -0.0340 cd         1 38O       0.355800
     13 C21         -5.2460     1.9570     0.0030 ca         1 38O       0.233000
     14 C23         -6.6150     2.0020     0.0400 ca         1 38O      -0.198000
     15 C24         -7.3190     0.8000     0.0760 ca         1 38O      -0.020000
     16 N2           7.4110     1.0020     0.4070 n3         1 38O      -0.714600
     17 N5           4.7700     0.0450    -0.1160 nh         1 38O      -0.783400
     18 C9           2.3610     0.2670    -0.1100 ca         1 38O      -0.115000
     19 C10          1.1050    -0.3290    -0.0750 ca         1 38O       0.118400
     20 N11         -0.1390     0.2470    -0.0870 nd         1 38O      -0.687100
     21 C14          0.9740    -1.7240    -0.0300 ca         1 38O      -0.103200
     22 N19         -2.3020     1.7630    -0.0660 nv         1 38O      -0.943000
     23 C20         -4.5030     0.7650     0.0000 ca         1 38O      -0.211800
     24 F22         -4.6030     3.1350    -0.0340 f          1 38O      -0.179000
     25 C25         -6.6530    -0.4020     0.0740 ca         1 38O      -0.193000
     26 C26         -5.2550    -0.4220     0.0360 ca         1 38O       0.152600
     27 N27         -4.6090    -1.6210     0.0350 ns         1 38O      -0.372100
     28 C28         -3.2540    -1.8020     0.0050 c          1 38O       0.606200
     29 H1           8.6340     2.2140    -0.8530 h1         1 38O       0.030033
     30 H2           8.8060     2.4760     0.8900 h1         1 38O       0.030033
     31 H3           9.4830     1.0260     0.1490 h1         1 38O       0.030033
     32 H4           8.0170    -0.7380    -0.5600 h1         1 38O       0.038200
     33 H5           7.0730     0.3510    -1.5820 h1         1 38O       0.038200
     34 H6           5.7500    -1.5710    -0.9960 h1         1 38O       0.042950
     35 H7           6.0880    -1.3890     0.7270 h1         1 38O       0.042950
     36 H8           5.0960     0.7580     1.8470 h1         1 38O       0.042950
     37 H9           4.1780     1.8370     0.8010 h1         1 38O       0.042950
     38 H10          6.1190     2.4080    -0.5140 h1         1 38O       0.038200
     39 H11          6.4460     2.6640     1.2050 h1         1 38O       0.038200
     40 H12         -0.8720    -2.8350     0.0160 hn         1 38O       0.392000
     41 H13          1.9970    -3.6270     0.0290 ha         1 38O       0.117000
     42 H14          4.1970    -2.5930     0.0280 ha         1 38O       0.111000
     43 H15         -7.1250     2.9550     0.0410 ha         1 38O       0.141000
     44 H16         -8.4000     0.8160     0.1060 ha         1 38O       0.125000
     45 H18          2.4390     1.3450    -0.1780 ha         1 38O       0.124000
     46 H20         -2.6980     2.6830    -0.0570 hn         1 38O       0.532000
     47 H21         -1.2890     1.6450    -0.0850 hn         1 38O       0.532000
     48 H22         -7.1990    -1.3360     0.1040 ha         1 38O       0.129000
     49 H23         -5.1690    -2.4620     0.0620 hn         1 38O       0.333500
     50 O29         -2.8180    -2.9570     0.0110 o          1 38O      -0.606000
@<TRIPOS>BOND
     1     1    16 1   
     2     1    29 1   
     3     1    30 1   
     4     1    31 1   
     5     2     3 1   
     6     2    16 1   
     7     2    32 1   
     8     2    33 1   
     9     3    17 1   
    10     3    34 1   
    11     3    35 1   
    12     4     5 1   
    13     4    17 1   
    14     4    36 1   
    15     4    37 1   
    16     5    16 1   
    17     5    38 1   
    18     5    39 1   
    19     6    10 ar  
    20     6    17 1   
    21     6    18 ar  
    22     7     8 1   
    23     7    11 1   
    24     7    20 2   
    25     8    21 1   
    26     8    40 1   
    27     9    10 ar  
    28     9    21 ar  
    29     9    41 1   
    30    10    42 1   
    31    11    12 2   
    32    11    28 1   
    33    12    22 1   
    34    12    23 1   
    35    13    14 ar  
    36    13    23 ar  
    37    13    24 1   
    38    14    15 ar  
    39    14    43 1   
    40    15    25 ar  
    41    15    44 1   
    42    18    19 ar  
    43    18    45 1   
    44    19    20 1   
    45    19    21 ar  
    46    22    46 1   
    47    22    47 1   
    48    23    26 ar  
    49    25    26 ar  
    50    25    48 1   
    51    26    27 1   
    52    27    28 1   
    53    27    49 1   
    54    28    50 2   
@<TRIPOS>SUBSTRUCTURE
     1 38O         1 TEMP              0 ****  ****    0 ROOT
