@<TRIPOS>MOLECULE
38P
   56    59     1     0     0
SMALL
No Charge or Current Charge


@<TRIPOS>ATOM
      1 N1           2.3750     1.4390     0.7270 na         1 38P       0.292900
      2 N2           1.8500     2.5530     1.3280 nc         1 38P      -0.302800
      3 C3           0.5090     2.5200     1.4770 cd         1 38P       0.142900
      4 N4          -0.3560     1.4760     1.0990 nd         1 38P      -0.293000
      5 C5           0.2370     0.4480     0.5260 cc         1 38P       0.453900
      6 C6           1.6290     0.3920     0.3150 cc         1 38P      -0.277000
      7 C7           2.4940    -0.5290    -0.2440 cd         1 38P      -0.029200
      8 C8           3.8210     0.0260    -0.1000 cd         1 38P      -0.221200
      9 C9           3.7230     1.2730     0.5070 cc         1 38P      -0.148100
     10 C10          5.1290    -0.5850    -0.5030 c          1 38P       0.639300
     11 O11          5.2570    -1.6930    -1.0020 o          1 38P      -0.607100
     12 N12          6.2200     0.2170    -0.2540 ns         1 38P      -0.507900
     13 C13          7.6020    -0.1550    -0.5520 c3         1 38P       0.102000
     14 C14          8.5880     0.9600    -0.1550 c3         1 38P      -0.094400
     15 C15         10.0560     0.5990    -0.4570 c3         1 38P      -0.087100
     16 C16          2.1400    -1.8570    -0.8830 c3         1 38P      -0.041900
     17 N17         -0.5040    -0.6430     0.1620 nu         1 38P      -0.933900
     18 C18         -1.8650    -0.9640     0.2720 ca         1 38P       0.272000
     19 C19         -2.2490    -2.2770     0.6310 ca         1 38P      -0.076300
     20 C20         -3.6170    -2.5950     0.7240 ca         1 38P      -0.108000
     21 C21         -4.6010    -1.6290     0.4570 ca         1 38P      -0.090000
     22 C22         -4.2330    -0.3160     0.0830 ca         1 38P      -0.141600
     23 C23         -2.8580    -0.0050    -0.0080 ca         1 38P      -0.038000
     24 C24         -5.2560     0.7580    -0.2270 c          1 38P       0.613700
     25 O25         -4.9310     1.8900    -0.5610 o          1 38P      -0.588100
     26 N26         -6.5840     0.4000    -0.1150 ns         1 38P      -0.480900
     27 C27         -7.6900     1.2820    -0.3740 cx         1 38P       0.044700
     28 C28         -9.0610     0.6660    -0.5010 cx         1 38P      -0.131900
     29 C29         -8.3540     1.1940    -1.7250 cx         1 38P      -0.131900
     30 C30         -1.2110    -3.3590     0.9280 c3         1 38P      -0.053800
     31 H3           0.0310     3.3730     1.9430 h5         1 38P       0.058100
     32 H9           4.4460     2.0230     0.8010 h4         1 38P       0.237000
     33 HN12         6.0410     1.1210     0.1580 hn         1 38P       0.312500
     34 H13          7.8480    -1.0760    -0.0050 h1         1 38P       0.051700
     35 H13A         7.6900    -0.3590    -1.6280 h1         1 38P       0.051700
     36 H14          8.3300     1.8810    -0.6920 hc         1 38P       0.042200
     37 H14A         8.4860     1.1700     0.9160 hc         1 38P       0.042200
     38 H15         10.3550    -0.3020     0.0920 hc         1 38P       0.036700
     39 H15A        10.1970     0.4140    -1.5290 hc         1 38P       0.036700
     40 H15B        10.7210     1.4180    -0.1600 hc         1 38P       0.036700
     41 H16          1.2340    -1.7800    -1.4940 hc         1 38P       0.052033
     42 H16A         2.9170    -2.2120    -1.5660 hc         1 38P       0.052033
     43 H16B         1.9830    -2.6320    -0.1240 hc         1 38P       0.052033
     44 HN17         0.0980    -1.4460     0.0190 hn         1 38P       0.515000
     45 H20         -3.9250    -3.6010     1.0030 ha         1 38P       0.118000
     46 H21         -5.6440    -1.9240     0.5410 ha         1 38P       0.115000
     47 H23         -2.5520     0.9910    -0.3130 ha         1 38P       0.157000
     48 HN26        -6.7700    -0.5510     0.1730 hn         1 38P       0.318500
     49 H27         -7.6090     2.2620     0.1000 h1         1 38P       0.086700
     50 H28         -9.1530    -0.4130    -0.3950 hc         1 38P       0.077700
     51 H28A        -9.9060     1.2340    -0.1180 hc         1 38P       0.077700
     52 H29         -8.7220     2.1180    -2.1650 hc         1 38P       0.077700
     53 H29A        -7.9660     0.4730    -2.4390 hc         1 38P       0.077700
     54 H30         -0.5050    -3.0310     1.7010 hc         1 38P       0.047367
     55 H30A        -1.6780    -4.2840     1.2880 hc         1 38P       0.047367
     56 H30B        -0.6370    -3.6130     0.0290 hc         1 38P       0.047367
@<TRIPOS>BOND
     1     1     2 1   
     2     1     6 1   
     3     1     9 1   
     4     2     3 2   
     5     3     4 1   
     6     3    31 1   
     7     4     5 2   
     8     5     6 1   
     9     5    17 1   
    10     6     7 2   
    11     7     8 1   
    12     7    16 1   
    13     8     9 2   
    14     8    10 1   
    15     9    32 1   
    16    10    11 2   
    17    10    12 1   
    18    12    13 1   
    19    12    33 1   
    20    13    14 1   
    21    13    34 1   
    22    13    35 1   
    23    14    15 1   
    24    14    36 1   
    25    14    37 1   
    26    15    38 1   
    27    15    39 1   
    28    15    40 1   
    29    16    41 1   
    30    16    42 1   
    31    16    43 1   
    32    17    18 1   
    33    17    44 1   
    34    18    19 ar  
    35    18    23 ar  
    36    19    20 ar  
    37    19    30 1   
    38    20    21 ar  
    39    20    45 1   
    40    21    22 ar  
    41    21    46 1   
    42    22    23 ar  
    43    22    24 1   
    44    23    47 1   
    45    24    25 2   
    46    24    26 1   
    47    26    27 1   
    48    26    48 1   
    49    27    28 1   
    50    27    29 1   
    51    27    49 1   
    52    28    29 1   
    53    28    50 1   
    54    28    51 1   
    55    29    52 1   
    56    29    53 1   
    57    30    54 1   
    58    30    55 1   
    59    30    56 1   
@<TRIPOS>SUBSTRUCTURE
     1 38P         1 TEMP              0 ****  ****    0 ROOT
