@<TRIPOS>MOLECULE
38P
   56    59     1     0     0
SMALL
abcg2


@<TRIPOS>ATOM
      1 N1           2.1600     1.4400     0.4590 na         1 38P       0.292900
      2 N2           1.5130     2.4820     1.0190 nc         1 38P      -0.302800
      3 C3           0.2470     2.2730     1.1880 cd         1 38P       0.142900
      4 N4          -0.4750     1.1810     0.8720 nd         1 38P      -0.293000
      5 C5           0.1590     0.1770     0.3100 cc         1 38P       0.453900
      6 C6           1.5640     0.2540     0.0670 cc         1 38P      -0.277000
      7 C7           2.5460    -0.5640    -0.4770 cd         1 38P      -0.029200
      8 C8           3.7470     0.1720    -0.3900 cd         1 38P      -0.221200
      9 C9           3.4700     1.4030     0.1930 cc         1 38P      -0.148100
     10 C10          5.0820    -0.2430    -0.8750 c          1 38P       0.639300
     11 O11          5.2280    -0.9650    -1.8550 o          1 38P      -0.607100
     12 N12          6.1200     0.2530    -0.1800 ns         1 38P      -0.507900
     13 C13          7.5000    -0.0110    -0.5290 c3         1 38P       0.102000
     14 C14          8.4340     0.9410     0.2010 c3         1 38P      -0.094400
     15 C15          9.8900     0.6820    -0.1570 c3         1 38P      -0.087100
     16 C16          2.3600    -1.9600    -0.9810 c3         1 38P      -0.041900
     17 N17         -0.5110    -0.9360    -0.0370 nu         1 38P      -0.933900
     18 C18         -1.8860    -1.1740     0.1600 ca         1 38P       0.272000
     19 C19         -2.2720    -2.3960     0.7230 ca         1 38P      -0.076300
     20 C20         -3.6320    -2.6400     0.8790 ca         1 38P      -0.108000
     21 C21         -4.5840    -1.7020     0.5150 ca         1 38P      -0.090000
     22 C22         -4.1880    -0.4880    -0.0410 ca         1 38P      -0.141600
     23 C23         -2.8340    -0.2420    -0.2340 ca         1 38P      -0.038000
     24 C24         -5.1580     0.5540    -0.4950 c          1 38P       0.613700
     25 O25         -4.8590     1.3650    -1.3600 o          1 38P      -0.588100
     26 N26         -6.3650     0.5410     0.1020 ns         1 38P      -0.480900
     27 C27         -7.3830     1.4800    -0.2340 cx         1 38P       0.044700
     28 C28         -8.7960     0.9950    -0.2380 cx         1 38P      -0.131900
     29 C29         -8.1130     1.3220    -1.5300 cx         1 38P      -0.131900
     30 C30         -1.2530    -3.4140     1.1390 c3         1 38P      -0.053800
     31 H3          -0.2960     3.0920     1.6430 h5         1 38P       0.058100
     32 H9           4.1030     2.2490     0.4020 h4         1 38P       0.237000
     33 HN12         5.9410     0.6990     0.7060 hn         1 38P       0.312500
     34 H13          7.7660    -1.0470    -0.2900 h1         1 38P       0.051700
     35 H13A         7.6220     0.1070    -1.6080 h1         1 38P       0.051700
     36 H14          8.1670     1.9710    -0.0490 hc         1 38P       0.042200
     37 H14A         8.2950     0.8330     1.2810 hc         1 38P       0.042200
     38 H15         10.1870    -0.3360     0.0970 hc         1 38P       0.036700
     39 H15A        10.0640     0.8230    -1.2250 hc         1 38P       0.036700
     40 H15B        10.5520     1.3630     0.3770 hc         1 38P       0.036700
     41 H16          1.6920    -1.9960    -1.8440 hc         1 38P       0.052033
     42 H16A         3.3040    -2.3930    -1.2960 hc         1 38P       0.052033
     43 H16B         1.9520    -2.6140    -0.2080 hc         1 38P       0.052033
     44 HN17         0.0230    -1.7000    -0.4200 hn         1 38P       0.515000
     45 H20         -3.9530    -3.5840     1.3010 ha         1 38P       0.118000
     46 H21         -5.6300    -1.9450     0.6460 ha         1 38P       0.115000
     47 H23         -2.5190     0.6830    -0.6960 ha         1 38P       0.157000
     48 HN26        -6.4980    -0.0180     0.9290 hn         1 38P       0.318500
     49 H27         -7.2100     2.4950     0.1100 h1         1 38P       0.086700
     50 H28         -8.9690    -0.0500    -0.0090 hc         1 38P       0.077700
     51 H28A        -9.5580     1.6660     0.1340 hc         1 38P       0.077700
     52 H29         -8.4000     2.2240    -2.0540 hc         1 38P       0.077700
     53 H29A        -7.8220     0.4990    -2.1700 hc         1 38P       0.077700
     54 H30         -0.5020    -2.9810     1.8010 hc         1 38P       0.047367
     55 H30A        -1.7240    -4.2440     1.6620 hc         1 38P       0.047367
     56 H30B        -0.7240    -3.8330     0.2790 hc         1 38P       0.047367
@<TRIPOS>BOND
     1     1     2 1   
     2     1     6 1   
     3     1     9 1   
     4     2     3 2   
     5     3     4 1   
     6     3    31 1   
     7     4     5 2   
     8     5     6 1   
     9     5    17 1   
    10     6     7 2   
    11     7     8 1   
    12     7    16 1   
    13     8     9 2   
    14     8    10 1   
    15     9    32 1   
    16    10    11 2   
    17    10    12 1   
    18    12    13 1   
    19    12    33 1   
    20    13    14 1   
    21    13    34 1   
    22    13    35 1   
    23    14    15 1   
    24    14    36 1   
    25    14    37 1   
    26    15    38 1   
    27    15    39 1   
    28    15    40 1   
    29    16    41 1   
    30    16    42 1   
    31    16    43 1   
    32    17    18 1   
    33    17    44 1   
    34    18    19 ar  
    35    18    23 ar  
    36    19    20 ar  
    37    19    30 1   
    38    20    21 ar  
    39    20    45 1   
    40    21    22 ar  
    41    21    46 1   
    42    22    23 ar  
    43    22    24 1   
    44    23    47 1   
    45    24    25 2   
    46    24    26 1   
    47    26    27 1   
    48    26    48 1   
    49    27    28 1   
    50    27    29 1   
    51    27    49 1   
    52    28    29 1   
    53    28    50 1   
    54    28    51 1   
    55    29    52 1   
    56    29    53 1   
    57    30    54 1   
    58    30    55 1   
    59    30    56 1   
@<TRIPOS>SUBSTRUCTURE
     1 38P         1 TEMP              0 ****  ****    0 ROOT
