@<TRIPOS>MOLECULE
38Q
   51    54     1     0     0
SMALL
bcc


@<TRIPOS>ATOM
      1 O19         -5.6730    -3.2300     1.4500 o          1 38Q      -0.819800
      2 C18         -5.2530    -3.4540     0.2990 c          1 38Q       0.923200
      3 O20         -5.4840    -4.4600    -0.3990 o          1 38Q      -0.819800
      4 C14         -4.3590    -2.3860    -0.3230 ca         1 38Q      -0.119600
      5 C15         -3.8500    -2.5400    -1.6100 ca         1 38Q      -0.109000
      6 C16         -3.0400    -1.5580    -2.1620 ca         1 38Q      -0.148000
      7 C17         -2.7260    -0.4120    -1.4470 ca         1 38Q      -0.184000
      8 C13         -4.0260    -1.2460     0.3990 ca         1 38Q      -0.113000
      9 C12         -3.2130    -0.2590    -0.1510 ca         1 38Q       0.080600
     10 N11         -2.9500     0.8930     0.6150 nu         1 38Q      -0.619000
     11 C10         -1.8920     1.7380     0.4450 ca         1 38Q       0.300600
     12 C9          -2.0610     3.1250     0.4350 ca         1 38Q      -0.413900
     13 C21         -3.4060     3.7430     0.5760 c          1 38Q       0.702700
     14 N22         -3.5700     4.9490     0.0150 nt         1 38Q      -0.668000
     15 O33         -4.3170     3.1800     1.1830 o          1 38Q      -0.631100
     16 C5          -0.5550     1.2380     0.3180 ca         1 38Q      -0.184300
     17 C6           0.4900     2.1670     0.1080 ca         1 38Q       0.429600
     18 N7           0.2950     3.5090     0.0910 nb         1 38Q      -0.718000
     19 C8          -0.9200     3.9380     0.2710 ca         1 38Q       0.472200
     20 C4          -0.2150    -0.1260     0.4580 ca         1 38Q      -0.065000
     21 C3           1.0780    -0.5500     0.3300 ca         1 38Q      -0.134000
     22 C2           2.1190     0.3650     0.0480 cp         1 38Q       0.009000
     23 C1           1.8130     1.7010    -0.0460 ca         1 38Q      -0.191300
     24 C23          3.5000    -0.0930    -0.1670 cp         1 38Q      -0.321600
     25 C24          4.2290     0.2930    -1.2710 ca         1 38Q       0.493200
     26 N25          5.4860    -0.0870    -1.5070 nb         1 38Q      -0.811000
     27 C26          6.0190    -0.8790    -0.6020 ca         1 38Q       0.914300
     28 O31          7.2600    -1.3110    -0.7520 os         1 38Q      -0.416100
     29 C32          7.9830    -0.9040    -1.9080 c3         1 38Q       0.142700
     30 N27          5.4340    -1.3210     0.5060 nb         1 38Q      -0.822000
     31 C28          4.1990    -0.9350     0.7250 ca         1 38Q       0.724600
     32 O29          3.5790    -1.3190     1.8230 os         1 38Q      -0.412100
     33 C30          4.2720    -2.1630     2.7410 c3         1 38Q       0.134700
     34 H2          -4.0970    -3.4250    -2.1800 ha         1 38Q       0.150000
     35 H3          -2.6560    -1.6770    -3.1680 ha         1 38Q       0.109000
     36 H4          -2.1140     0.3560    -1.9010 ha         1 38Q       0.114000
     37 H5          -4.4010    -1.1230     1.4080 ha         1 38Q       0.159000
     38 H6          -3.7710     1.3550     0.9900 hn         1 38Q       0.467800
     39 H7          -2.9080     5.3380    -0.6340 hn         1 38Q       0.309000
     40 H8          -4.4730     5.3930     0.0600 hn         1 38Q       0.309000
     41 H9          -1.0360     5.0180     0.2970 h4         1 38Q       0.001100
     42 H10         -0.9750    -0.8600     0.6820 ha         1 38Q       0.167000
     43 H11          1.2980    -1.6040     0.4330 ha         1 38Q       0.141000
     44 H12          2.5890     2.4390    -0.2070 ha         1 38Q       0.140000
     45 H13          3.7730     0.9350    -2.0180 h4         1 38Q       0.032100
     46 H14          8.9600    -1.3710    -1.8240 h1         1 38Q       0.047367
     47 H15          7.4970    -1.2410    -2.8240 h1         1 38Q       0.047367
     48 H16          8.1010     0.1790    -1.9480 h1         1 38Q       0.047367
     49 H17          3.5850    -2.3230     3.5670 h1         1 38Q       0.051367
     50 H18          4.5270    -3.1190     2.2870 h1         1 38Q       0.051367
     51 H19          5.1810    -1.6880     3.1090 h1         1 38Q       0.051367
@<TRIPOS>BOND
     1     1     2 1   
     2     2     3 1   
     3     2     4 1   
     4     4     5 ar  
     5     4     8 ar  
     6     5     6 ar  
     7     5    34 1   
     8     6     7 ar  
     9     6    35 1   
    10     7     9 ar  
    11     7    36 1   
    12     8     9 ar  
    13     8    37 1   
    14     9    10 1   
    15    10    11 1   
    16    10    38 1   
    17    11    12 ar  
    18    11    16 ar  
    19    12    13 1   
    20    12    19 ar  
    21    13    14 1   
    22    13    15 2   
    23    14    39 1   
    24    14    40 1   
    25    16    17 ar  
    26    16    20 ar  
    27    17    18 ar  
    28    17    23 ar  
    29    18    19 ar  
    30    19    41 1   
    31    20    21 ar  
    32    20    42 1   
    33    21    22 ar  
    34    21    43 1   
    35    22    23 ar  
    36    22    24 1   
    37    23    44 1   
    38    24    25 ar  
    39    24    31 ar  
    40    25    26 ar  
    41    25    45 1   
    42    26    27 ar  
    43    27    28 1   
    44    27    30 ar  
    45    28    29 1   
    46    29    46 1   
    47    29    47 1   
    48    29    48 1   
    49    30    31 ar  
    50    31    32 1   
    51    32    33 1   
    52    33    49 1   
    53    33    50 1   
    54    33    51 1   
@<TRIPOS>SUBSTRUCTURE
     1 38Q         1 TEMP              0 ****  ****    0 ROOT
