@<TRIPOS>MOLECULE
38Q
   51    54     1     0     0
SMALL
No Charge or Current Charge


@<TRIPOS>ATOM
      1 O19         -6.4670    -2.7500     1.3710 o          1 38Q      -0.714500
      2 C18         -5.9650    -3.1030     0.3130 c          1 38Q       0.712600
      3 O20         -6.3410    -4.0910    -0.3010 o          1 38Q      -0.714500
      4 C14         -4.8250    -2.2770    -0.2630 ca         1 38Q      -0.119600
      5 C15         -4.2120    -2.6390    -1.4860 ca         1 38Q      -0.091000
      6 C16         -3.1640    -1.8690    -2.0160 ca         1 38Q      -0.130000
      7 C17         -2.7090    -0.7320    -1.3320 ca         1 38Q      -0.166000
      8 C13         -4.3510    -1.1260     0.4130 ca         1 38Q      -0.095000
      9 C12         -3.2920    -0.3620    -0.1070 ca         1 38Q       0.219000
     10 N11         -2.8670     0.7740     0.5840 nu         1 38Q      -0.951000
     11 C10         -1.8000     1.6550     0.3950 ca         1 38Q       0.439000
     12 C9          -2.0690     3.0320     0.3270 ca         1 38Q      -0.348600
     13 C21         -3.4330     3.6090     0.5420 c          1 38Q       0.635700
     14 N22         -3.6570     4.8810     0.1550 nt         1 38Q      -0.601000
     15 O33         -4.3390     3.0040     1.0900 o          1 38Q      -0.631100
     16 C5          -0.4630     1.2030     0.2690 ca         1 38Q      -0.119000
     17 C6           0.5430     2.1540    -0.0070 ca         1 38Q       0.299000
     18 N7           0.2660     3.4670    -0.1220 nb         1 38Q      -0.718000
     19 C8          -0.9990     3.8880     0.0530 ca         1 38Q       0.406900
     20 C4          -0.1010    -0.1550     0.4320 ca         1 38Q      -0.047000
     21 C3           1.2340    -0.5620     0.2850 ca         1 38Q      -0.116000
     22 C2           2.2500     0.3720    -0.0130 cp         1 38Q       0.009000
     23 C1           1.8740     1.7270    -0.1560 ca         1 38Q      -0.108000
     24 C23          3.6760    -0.0440    -0.1920 cp         1 38Q      -0.191000
     25 C24          4.4430     0.4620    -1.2640 ca         1 38Q       0.164900
     26 N25          5.7260     0.1100    -1.4650 nb         1 38Q      -0.285000
     27 C26          6.2780    -0.7570    -0.5890 ca         1 38Q       0.388300
     28 O31          7.5900    -1.1420    -0.7600 os         1 38Q      -0.439300
     29 C32          8.3860    -0.6450    -1.8560 c3         1 38Q       0.165900
     30 N27          5.6430    -1.2890     0.4700 nb         1 38Q      -0.296000
     31 C28          4.3570    -0.9410     0.6710 ca         1 38Q       0.396300
     32 O29          3.6660    -1.4230     1.7640 os         1 38Q      -0.435300
     33 C30          4.2790    -2.3400     2.6920 c3         1 38Q       0.157900
     34 H2          -4.5520    -3.5170    -2.0320 ha         1 38Q       0.132000
     35 H3          -2.7080    -2.1530    -2.9620 ha         1 38Q       0.091000
     36 H4          -1.9080    -0.1380    -1.7640 ha         1 38Q       0.096000
     37 H5          -4.8020    -0.8260     1.3550 ha         1 38Q       0.141000
     38 H6          -3.6450     1.2730     1.0330 hn         1 38Q       0.523000
     39 H7          -2.9340     5.4130    -0.3050 hn         1 38Q       0.309000
     40 H8          -4.5690     5.2840     0.3090 hn         1 38Q       0.309000
     41 H9          -1.1340     4.9660    -0.0210 h4         1 38Q       0.001100
     42 H10         -0.8430    -0.9080     0.6840 ha         1 38Q       0.149000
     43 H11          1.4800    -1.6150     0.3950 ha         1 38Q       0.123000
     44 H12          2.6370     2.4680    -0.3730 ha         1 38Q       0.122000
     45 H13          4.0140     1.1560    -1.9850 h4         1 38Q       0.032100
     46 H14          9.3970    -1.0700    -1.8160 h1         1 38Q       0.047367
     47 H15          7.9400    -0.9210    -2.8210 h1         1 38Q       0.047367
     48 H16          8.4750     0.4480    -1.8110 h1         1 38Q       0.047367
     49 H17          3.5710    -2.6100     3.4860 h1         1 38Q       0.051367
     50 H18          4.5870    -3.2630     2.1850 h1         1 38Q       0.051367
     51 H19          5.1610    -1.8890     3.1640 h1         1 38Q       0.051367
@<TRIPOS>BOND
     1     1     2 1   
     2     2     3 1   
     3     2     4 1   
     4     4     5 ar  
     5     4     8 ar  
     6     5     6 ar  
     7     5    34 1   
     8     6     7 ar  
     9     6    35 1   
    10     7     9 ar  
    11     7    36 1   
    12     8     9 ar  
    13     8    37 1   
    14     9    10 1   
    15    10    11 1   
    16    10    38 1   
    17    11    12 ar  
    18    11    16 ar  
    19    12    13 1   
    20    12    19 ar  
    21    13    14 1   
    22    13    15 2   
    23    14    39 1   
    24    14    40 1   
    25    16    17 ar  
    26    16    20 ar  
    27    17    18 ar  
    28    17    23 ar  
    29    18    19 ar  
    30    19    41 1   
    31    20    21 ar  
    32    20    42 1   
    33    21    22 ar  
    34    21    43 1   
    35    22    23 ar  
    36    22    24 1   
    37    23    44 1   
    38    24    25 ar  
    39    24    31 ar  
    40    25    26 ar  
    41    25    45 1   
    42    26    27 ar  
    43    27    28 1   
    44    27    30 ar  
    45    28    29 1   
    46    29    46 1   
    47    29    47 1   
    48    29    48 1   
    49    30    31 ar  
    50    31    32 1   
    51    32    33 1   
    52    33    49 1   
    53    33    50 1   
    54    33    51 1   
@<TRIPOS>SUBSTRUCTURE
     1 38Q         1 TEMP              0 ****  ****    0 ROOT
