@<TRIPOS>MOLECULE
38R
   48    51     1     0     0
SMALL
No Charge or Current Charge


@<TRIPOS>ATOM
      1 C4          27.6650    20.8910    59.1620 ca         1 38R       0.420900
      2 C5          28.4620    21.2010    58.0580 ca         1 38R      -0.330000
      3 C6          28.5100    20.2670    57.0130 ca         1 38R       0.174900
      4 N1          27.8240    19.1100    57.0770 nb         1 38R      -0.266000
      5 N3          26.9890    19.7360    59.2390 nb         1 38R      -0.276000
      6 C1U         24.1010    20.0290    64.4390 c5         1 38R      -0.070900
      7 C1T         23.8360    21.1630    63.4120 c5         1 38R      -0.098000
      8 C1R         25.1230    21.7220    62.8010 cc         1 38R       0.282300
      9 C1S         25.6170    21.1800    61.6000 cc         1 38R      -0.224000
     10 N1Q         25.8430    22.7180    63.2820 nd         1 38R      -0.523800
     11 N1P         26.8640    22.8240    62.3300 na         1 38R      -0.062200
     12 C1H         26.7340    21.8860    61.3010 cd         1 38R       0.238000
     13 N1G         27.5730    21.7900    60.2170 nu         1 38R      -0.930900
     14 C1Y         23.1990    18.9400    62.4750 c5         1 38R      -0.082400
     15 C2          27.1120    18.9000    58.1960 ca         1 38R       0.413900
     16 N1I         26.4070    17.7060    58.2250 nu         1 38R      -0.938900
     17 C1J         25.7760    16.9750    59.2360 ca         1 38R       0.324000
     18 C1K         24.7280    16.1050    58.8920 ca         1 38R      -0.143500
     19 C1L         24.0910    15.3260    59.8750 ca         1 38R      -0.070000
     20 C1O         26.1950    17.0420    60.5770 ca         1 38R      -0.143500
     21 C1N         25.5690    16.2580    61.5620 ca         1 38R      -0.070000
     22 C1M         24.5080    15.4000    61.2180 ca         1 38R      -0.119300
     23 C1V         23.8320    14.5400    62.2840 c3         1 38R       0.039000
     24 C01         24.3530    18.8170    63.5120 c5         1 38R      -0.082400
     25 C1Z         22.5600    15.1230    62.7300 c1         1 38R       0.300900
     26 C03         22.8510    20.4650    62.4160 c5         1 38R      -0.070900
     27 N1A         21.5390    15.5540    63.0910 n1         1 38R      -0.462000
     28 H5          29.0150    22.1340    57.9970 ha         1 38R       0.133000
     29 H1G         28.2440    22.5560    60.1410 hn         1 38R       0.498000
     30 H6          29.0990    20.4450    56.1150 h4         1 38R       0.025100
     31 H1U2        23.2300    19.8610    65.0840 hc         1 38R       0.046450
     32 H1T         23.3180    21.9920    63.9090 hc         1 38R       0.066700
     33 H011        25.3380    18.8720    63.0360 hc         1 38R       0.042450
     34 H012        24.3180    17.8670    64.0560 hc         1 38R       0.042450
     35 H031        21.8150    20.6190    62.7400 hc         1 38R       0.046450
     36 H032        22.9070    20.8760    61.4010 hc         1 38R       0.046450
     37 H1S         25.1820    20.3740    61.0280 ha         1 38R       0.170000
     38 H1P         27.6010    23.5190    62.4120 hn         1 38R       0.364000
     39 H1Y1        23.4930    18.5440    61.4960 hc         1 38R       0.042450
     40 H1Y2        22.3240    18.3630    62.7950 hc         1 38R       0.042450
     41 H1I         26.3120    17.2940    57.2980 hn         1 38R       0.515000
     42 H1O         27.0250    17.6810    60.8610 ha         1 38R       0.130000
     43 H1K         24.3990    16.0330    57.8590 ha         1 38R       0.130000
     44 H1N         25.9160    16.3160    62.5920 ha         1 38R       0.118000
     45 H1L         23.2780    14.6610    59.5890 ha         1 38R       0.118000
     46 H1V1        23.6360    13.5330    61.8970 hc         1 38R       0.074700
     47 H1V2        24.4810    14.4150    63.1580 hc         1 38R       0.074700
     48 H1U1        24.9540    20.2420    65.0940 hc         1 38R       0.046450
@<TRIPOS>BOND
     1     1     2 ar  
     2     1     5 ar  
     3     1    13 1   
     4     2     3 ar  
     5     2    28 1   
     6     3     4 ar  
     7     3    30 1   
     8     4    15 ar  
     9     5    15 ar  
    10     6     7 1   
    11     6    24 1   
    12     6    31 1   
    13     6    48 1   
    14     7     8 1   
    15     7    26 1   
    16     7    32 1   
    17     8     9 1   
    18     8    10 2   
    19     9    12 2   
    20     9    37 1   
    21    10    11 1   
    22    11    12 1   
    23    11    38 1   
    24    12    13 1   
    25    13    29 1   
    26    14    24 1   
    27    14    26 1   
    28    14    39 1   
    29    14    40 1   
    30    15    16 1   
    31    16    17 1   
    32    16    41 1   
    33    17    18 ar  
    34    17    20 ar  
    35    18    19 ar  
    36    18    43 1   
    37    19    22 ar  
    38    19    45 1   
    39    20    21 ar  
    40    20    42 1   
    41    21    22 ar  
    42    21    44 1   
    43    22    23 1   
    44    23    25 1   
    45    23    46 1   
    46    23    47 1   
    47    24    33 1   
    48    24    34 1   
    49    25    27 3   
    50    26    35 1   
    51    26    36 1   
@<TRIPOS>SUBSTRUCTURE
     1 38R         1 TEMP              0 ****  ****    0 ROOT
