@<TRIPOS>MOLECULE
38R
   48    51     1     0     0
SMALL
abcg2


@<TRIPOS>ATOM
      1 C4          27.7390    20.8400    59.1430 ca         1 38R       0.420900
      2 C5          28.5720    21.1560    58.0540 ca         1 38R      -0.330000
      3 C6          28.5710    20.2580    57.0120 ca         1 38R       0.174900
      4 N1          27.8600    19.1220    57.0160 nb         1 38R      -0.266000
      5 N3          27.0260    19.7150    59.1780 nb         1 38R      -0.276000
      6 C1U         24.1950    20.0960    64.5610 c5         1 38R      -0.070900
      7 C1T         23.8530    21.1300    63.4660 c5         1 38R      -0.098000
      8 C1R         25.0570    21.5510    62.6760 cc         1 38R       0.282300
      9 C1S         25.6400    20.9240    61.5470 cc         1 38R      -0.224000
     10 N1Q         25.7290    22.6490    63.0170 nd         1 38R      -0.523800
     11 N1P         26.7470    22.7330    62.1200 na         1 38R      -0.062200
     12 C1H         26.7170    21.7290    61.2110 cd         1 38R       0.238000
     13 N1G         27.6490    21.7170    60.1900 nu         1 38R      -0.930900
     14 C1Y         23.1390    18.8710    62.7350 c5         1 38R      -0.082400
     15 C2          27.1320    18.9010    58.1210 ca         1 38R       0.413900
     16 N1I         26.4200    17.7310    58.1130 nu         1 38R      -0.938900
     17 C1J         25.7850    17.0580    59.1620 ca         1 38R       0.324000
     18 C1K         24.7800    16.1400    58.8310 ca         1 38R      -0.143500
     19 C1L         24.1590    15.3880    59.8150 ca         1 38R      -0.070000
     20 C1O         26.1500    17.2030    60.5030 ca         1 38R      -0.143500
     21 C1N         25.5190    16.4420    61.4780 ca         1 38R      -0.070000
     22 C1M         24.5200    15.5320    61.1540 ca         1 38R      -0.119300
     23 C1V         23.8420    14.7160    62.2360 c3         1 38R       0.039000
     24 C01         24.2470    18.7640    63.8070 c5         1 38R      -0.082400
     25 C1Z         22.4500    15.1060    62.4390 c1         1 38R       0.300900
     26 C03         22.8010    20.3810    62.6170 c5         1 38R      -0.070900
     27 N1A         21.3520    15.4170    62.5890 n1         1 38R      -0.462000
     28 H5          29.1540    22.0670    58.0260 ha         1 38R       0.133000
     29 H1G         28.2280    22.5400    60.1130 hn         1 38R       0.498000
     30 H6          29.1650    20.4490    56.1250 h4         1 38R       0.025100
     31 H1U2        23.3830    20.0840    65.2940 hc         1 38R       0.046450
     32 H1T         23.4310    22.0320    63.9120 hc         1 38R       0.066700
     33 H011        25.2210    18.6590    63.3270 hc         1 38R       0.042450
     34 H012        24.1140    17.9010    64.4610 hc         1 38R       0.042450
     35 H031        21.8120    20.5760    63.0340 hc         1 38R       0.046450
     36 H032        22.7900    20.7270    61.5840 hc         1 38R       0.046450
     37 H1S         25.3270    20.0310    61.0440 ha         1 38R       0.170000
     38 H1P         27.3760    23.5210    62.1430 hn         1 38R       0.364000
     39 H1Y1        23.4730    18.4540    61.7850 hc         1 38R       0.042450
     40 H1Y2        22.2550    18.3070    63.0330 hc         1 38R       0.042450
     41 H1I         26.4170    17.2670    57.2170 hn         1 38R       0.515000
     42 H1O         26.9230    17.9010    60.7800 ha         1 38R       0.130000
     43 H1K         24.4940    16.0180    57.7940 ha         1 38R       0.130000
     44 H1N         25.8190    16.5600    62.5110 ha         1 38R       0.118000
     45 H1L         23.3830    14.6850    59.5360 ha         1 38R       0.118000
     46 H1V1        23.8520    13.6500    61.9900 hc         1 38R       0.074700
     47 H1V2        24.3640    14.8340    63.1880 hc         1 38R       0.074700
     48 H1U1        25.1200    20.3310    65.0880 hc         1 38R       0.046450
@<TRIPOS>BOND
     1     1     2 ar  
     2     1     5 ar  
     3     1    13 1   
     4     2     3 ar  
     5     2    28 1   
     6     3     4 ar  
     7     3    30 1   
     8     4    15 ar  
     9     5    15 ar  
    10     6     7 1   
    11     6    24 1   
    12     6    31 1   
    13     6    48 1   
    14     7     8 1   
    15     7    26 1   
    16     7    32 1   
    17     8     9 1   
    18     8    10 2   
    19     9    12 2   
    20     9    37 1   
    21    10    11 1   
    22    11    12 1   
    23    11    38 1   
    24    12    13 1   
    25    13    29 1   
    26    14    24 1   
    27    14    26 1   
    28    14    39 1   
    29    14    40 1   
    30    15    16 1   
    31    16    17 1   
    32    16    41 1   
    33    17    18 ar  
    34    17    20 ar  
    35    18    19 ar  
    36    18    43 1   
    37    19    22 ar  
    38    19    45 1   
    39    20    21 ar  
    40    20    42 1   
    41    21    22 ar  
    42    21    44 1   
    43    22    23 1   
    44    23    25 1   
    45    23    46 1   
    46    23    47 1   
    47    24    33 1   
    48    24    34 1   
    49    25    27 3   
    50    26    35 1   
    51    26    36 1   
@<TRIPOS>SUBSTRUCTURE
     1 38R         1 TEMP              0 ****  ****    0 ROOT
