@<TRIPOS>MOLECULE
38S
   30    31     1     0     0
SMALL
abcg2


@<TRIPOS>ATOM
      1 OAC          1.5020     2.5990     0.2590 o          1 38S      -0.570000
      2 CAM          1.5500     1.3880     0.1510 c          1 38S       0.613000
      3 NAI          2.7280     0.7170    -0.0400 ns         1 38S      -0.465500
      4 CAL          2.9120    -0.6460    -0.1940 c          1 38S       0.588200
      5 OAB          4.0270    -1.1050    -0.3670 o          1 38S      -0.531000
      6 CAK          1.6920    -1.4210    -0.1220 cc         1 38S      -0.280400
      7 CAA          1.7710    -2.9060    -0.2590 c3         1 38S      -0.016900
      8 CAE          0.5330    -0.7650     0.0790 cd         1 38S       0.003600
      9 NAP          0.4350     0.5900     0.2090 n          1 38S      -0.332000
     10 CAO         -0.8660     1.2860     0.3940 c5         1 38S       0.343700
     11 OAJ         -1.8270     0.3700     0.8040 os         1 38S      -0.441000
     12 CAH         -1.3740     1.8990    -0.9100 c5         1 38S      -0.120400
     13 CAG         -2.2560     0.7890    -1.4630 c5         1 38S      -0.117400
     14 CAN         -2.8540     0.2160    -0.1900 c5         1 38S       0.156300
     15 CAF         -3.2760    -1.2280    -0.3010 c3         1 38S       0.162600
     16 OAD         -3.7890    -1.6580     0.9350 oh         1 38S      -0.703000
     17 H1           3.5560     1.2990    -0.0820 hn         1 38S       0.342500
     18 H2           2.4170    -3.3440     0.5040 hc         1 38S       0.044367
     19 H3           0.7850    -3.3570    -0.1590 hc         1 38S       0.044367
     20 H4           2.1750    -3.1960    -1.2290 hc         1 38S       0.044367
     21 H5          -0.3930    -1.3130     0.1660 h4         1 38S       0.217000
     22 H6          -0.7050     2.0300     1.1750 h2         1 38S       0.108700
     23 H7          -1.9700     2.7830    -0.6770 hc         1 38S       0.076700
     24 H8          -0.5730     2.2060    -1.5790 hc         1 38S       0.076700
     25 H9          -3.0180     1.1510    -2.1500 hc         1 38S       0.063700
     26 H10         -1.6580     0.0380    -1.9880 hc         1 38S       0.063700
     27 H11         -3.7190     0.8170     0.1210 h1         1 38S       0.070700
     28 H12         -4.0250    -1.2860    -1.1000 h1         1 38S       0.023700
     29 H13         -2.4220    -1.8390    -0.6280 h1         1 38S       0.023700
     30 H14         -4.1250    -2.5520     0.8260 ho         1 38S       0.507000
@<TRIPOS>BOND
     1     1     2 2   
     2     2     3 1   
     3     2     9 1   
     4     3     4 1   
     5     3    17 1   
     6     4     5 2   
     7     4     6 1   
     8     6     7 1   
     9     6     8 2   
    10     7    18 1   
    11     7    19 1   
    12     7    20 1   
    13     8     9 1   
    14     8    21 1   
    15     9    10 1   
    16    10    11 1   
    17    10    12 1   
    18    10    22 1   
    19    11    14 1   
    20    12    13 1   
    21    12    23 1   
    22    12    24 1   
    23    13    14 1   
    24    13    25 1   
    25    13    26 1   
    26    14    15 1   
    27    14    27 1   
    28    15    16 1   
    29    15    28 1   
    30    15    29 1   
    31    16    30 1   
@<TRIPOS>SUBSTRUCTURE
     1 38S         1 TEMP              0 ****  ****    0 ROOT
