@<TRIPOS>MOLECULE
38S
   30    31     1     0     0
SMALL
No Charge or Current Charge


@<TRIPOS>ATOM
      1 OAC          1.4040     2.4640     1.0120 o          1 38S      -0.570000
      2 CAM          1.5730     1.3270     0.6030 c          1 38S       0.613000
      3 NAI          2.8220     0.8020     0.5210 ns         1 38S      -0.465500
      4 CAL          3.1920    -0.4310     0.0860 c          1 38S       0.588200
      5 OAB          4.3650    -0.7650     0.0690 o          1 38S      -0.531000
      6 CAK          2.0630    -1.2850    -0.3470 cc         1 38S      -0.280400
      7 CAA          2.4250    -2.6660    -0.8430 c3         1 38S      -0.016900
      8 CAE          0.7730    -0.8020    -0.2810 cd         1 38S       0.003600
      9 NAP          0.5250     0.4890     0.1900 n          1 38S      -0.332000
     10 CAO         -0.8610     1.0170     0.2550 c5         1 38S       0.343700
     11 OAJ         -1.7870    -0.0180     0.6460 os         1 38S      -0.441000
     12 CAH         -1.2720     1.4280    -1.1970 c5         1 38S      -0.120400
     13 CAG         -2.4520     0.4610    -1.5140 c5         1 38S      -0.117400
     14 CAN         -3.0040     0.2040    -0.0920 c5         1 38S       0.156300
     15 CAF         -3.9650    -1.0120     0.0280 c3         1 38S       0.162600
     16 OAD         -4.5590    -1.0870     1.3370 oh         1 38S      -0.703000
     17 H1           3.5710     1.4050     0.8200 hn         1 38S       0.342500
     18 H2           2.9340    -3.2440    -0.0620 hc         1 38S       0.044367
     19 H3           1.5320    -3.2280    -1.1430 hc         1 38S       0.044367
     20 H4           3.0900    -2.6110    -1.7120 hc         1 38S       0.044367
     21 H5          -0.1110    -1.3610    -0.5780 h4         1 38S       0.217000
     22 H6          -0.9030     1.8650     0.9530 h2         1 38S       0.108700
     23 H7          -1.6020     2.4740    -1.2120 hc         1 38S       0.076700
     24 H8          -0.4590     1.3450    -1.9270 hc         1 38S       0.076700
     25 H9          -3.1970     0.9070    -2.1830 hc         1 38S       0.063700
     26 H10         -2.1000    -0.4670    -1.9800 hc         1 38S       0.063700
     27 H11         -3.5070     1.1000     0.3010 h1         1 38S       0.070700
     28 H12         -4.7510    -0.9090    -0.7320 h1         1 38S       0.023700
     29 H13         -3.4060    -1.9310    -0.1950 h1         1 38S       0.023700
     30 H14         -5.1020    -1.9090     1.3600 ho         1 38S       0.507000
@<TRIPOS>BOND
     1     1     2 2   
     2     2     3 1   
     3     2     9 1   
     4     3     4 1   
     5     3    17 1   
     6     4     5 2   
     7     4     6 1   
     8     6     7 1   
     9     6     8 2   
    10     7    18 1   
    11     7    19 1   
    12     7    20 1   
    13     8     9 1   
    14     8    21 1   
    15     9    10 1   
    16    10    11 1   
    17    10    12 1   
    18    10    22 1   
    19    11    14 1   
    20    12    13 1   
    21    12    23 1   
    22    12    24 1   
    23    13    14 1   
    24    13    25 1   
    25    13    26 1   
    26    14    15 1   
    27    14    27 1   
    28    15    16 1   
    29    15    28 1   
    30    15    29 1   
    31    16    30 1   
@<TRIPOS>SUBSTRUCTURE
     1 38S         1 TEMP              0 ****  ****    0 ROOT
