@<TRIPOS>MOLECULE
38T
   32    33     1     0     0
SMALL
No Charge or Current Charge


@<TRIPOS>ATOM
      1 OAC          0.1540    -1.2770    -1.4110 o          1 38T      -0.576000
      2 CAM          1.0480    -0.7860    -0.7420 c          1 38T       0.624000
      3 NAI          2.3420    -1.0550    -1.0540 ns         1 38T      -0.467500
      4 CAL          3.4710    -0.5790    -0.4700 c          1 38T       0.588200
      5 OAB          4.5740    -0.9160    -0.8670 o          1 38T      -0.524000
      6 CAK          3.2250     0.3570     0.6490 cc         1 38T      -0.260400
      7 CAA          4.4520     0.9220     1.3260 c3         1 38T      -0.019900
      8 CAG          1.9310     0.6600     1.0170 cd         1 38T       0.000600
      9 NAR          0.8460     0.0940     0.3450 n          1 38T      -0.313000
     10 C1          -0.5280     0.4030     0.8340 c5         1 38T       0.334700
     11 O4          -1.4120    -0.7380     0.8330 os         1 38T      -0.432000
     12 C4          -2.7120    -0.2540     0.4340 c5         1 38T       0.173300
     13 C5          -3.6420    -1.4380     0.0460 c3         1 38T       0.162600
     14 O5          -4.0510    -2.1920     1.2050 oh         1 38T      -0.708000
     15 C3          -2.3580     0.7190    -0.7360 c5         1 38T       0.093300
     16 O3          -3.4230     1.6310    -1.0890 oh         1 38T      -0.714000
     17 C2          -1.1580     1.4980    -0.1120 c5         1 38T       0.109300
     18 O2          -1.6920     2.6240     0.5990 oh         1 38T      -0.719000
     19 H1           2.4800    -1.6840    -1.8270 hn         1 38T       0.342500
     20 H2           5.0690     0.1230     1.7560 hc         1 38T       0.048367
     21 H3           5.0710     1.4830     0.6150 hc         1 38T       0.048367
     22 H4           4.1810     1.6060     2.1400 hc         1 38T       0.048367
     23 H5           1.6680     1.3360     1.8280 h4         1 38T       0.209000
     24 H6          -0.4340     0.7940     1.8550 h2         1 38T       0.086700
     25 H7          -3.1650     0.2930     1.2730 h1         1 38T       0.080700
     26 H8          -4.5260    -1.0330    -0.4650 h1         1 38T       0.034700
     27 H9          -3.1140    -2.0830    -0.6700 h1         1 38T       0.034700
     28 H10         -4.5780    -2.9590     0.8790 ho         1 38T       0.506000
     29 H11         -2.0230     0.1490    -1.6160 h1         1 38T       0.084700
     30 H12         -3.9640     1.2050    -1.7990 ho         1 38T       0.518000
     31 H13         -0.4530     1.8280    -0.8880 h1         1 38T       0.075700
     32 H14         -2.5760     2.7380     0.1580 ho         1 38T       0.531000
@<TRIPOS>BOND
     1     1     2 2   
     2     2     3 1   
     3     2     9 1   
     4     3     4 1   
     5     3    19 1   
     6     4     5 2   
     7     4     6 1   
     8     6     7 1   
     9     6     8 2   
    10     7    20 1   
    11     7    21 1   
    12     7    22 1   
    13     8     9 1   
    14     8    23 1   
    15     9    10 1   
    16    10    11 1   
    17    10    17 1   
    18    10    24 1   
    19    11    12 1   
    20    12    13 1   
    21    12    15 1   
    22    12    25 1   
    23    13    14 1   
    24    13    26 1   
    25    13    27 1   
    26    14    28 1   
    27    15    16 1   
    28    15    17 1   
    29    15    29 1   
    30    16    30 1   
    31    17    18 1   
    32    17    31 1   
    33    18    32 1   
@<TRIPOS>SUBSTRUCTURE
     1 38T         1 TEMP              0 ****  ****    0 ROOT
