@<TRIPOS>MOLECULE
38T
   32    33     1     0     0
SMALL
abcg2


@<TRIPOS>ATOM
      1 OAC         -0.0440    -0.7890    -1.6090 o          1 38T      -0.576000
      2 CAM          0.8950    -0.4910    -0.9000 c          1 38T       0.624000
      3 NAI          2.1690    -0.9180    -1.1650 ns         1 38T      -0.467500
      4 CAL          3.3240    -0.6520    -0.4510 c          1 38T       0.588200
      5 OAB          4.3950    -1.1010    -0.8150 o          1 38T      -0.524000
      6 CAK          3.1230     0.1760     0.7210 cc         1 38T      -0.260400
      7 CAA          4.3000     0.5180     1.5750 c3         1 38T      -0.019900
      8 CAG          1.8750     0.5950     0.9880 cd         1 38T       0.000600
      9 NAR          0.7780     0.3010     0.2180 n          1 38T      -0.313000
     10 C1          -0.5340     0.7750     0.6390 c5         1 38T       0.334700
     11 O4          -1.3200    -0.3150     1.0250 os         1 38T      -0.432000
     12 C4          -2.6370    -0.2050     0.5080 c5         1 38T       0.173300
     13 C5          -3.1860    -1.5740     0.1940 c3         1 38T       0.162600
     14 O5          -3.3610    -2.2930     1.3910 oh         1 38T      -0.708000
     15 C3          -2.5240     0.6800    -0.7320 c5         1 38T       0.093300
     16 O3          -3.7170     1.3990    -0.9150 oh         1 38T      -0.714000
     17 C2          -1.3280     1.5920    -0.3960 c5         1 38T       0.109300
     18 O2          -1.7700     2.7640     0.2390 oh         1 38T      -0.719000
     19 H1           2.2670    -1.4990    -1.9900 hn         1 38T       0.342500
     20 H2           4.7810    -0.3800     1.9640 hc         1 38T       0.048367
     21 H3           5.0530     1.0690     1.0100 hc         1 38T       0.048367
     22 H4           4.0000     1.1320     2.4220 hc         1 38T       0.048367
     23 H5           1.6700     1.2110     1.8530 h4         1 38T       0.209000
     24 H6          -0.3320     1.4260     1.4940 h2         1 38T       0.086700
     25 H7          -3.2870     0.2920     1.2430 h1         1 38T       0.080700
     26 H8          -4.1360    -1.4340    -0.3380 h1         1 38T       0.034700
     27 H9          -2.4970    -2.0800    -0.4950 h1         1 38T       0.034700
     28 H10         -3.7380    -3.1500     1.1710 ho         1 38T       0.506000
     29 H11         -2.2890     0.0750    -1.6090 h1         1 38T       0.084700
     30 H12         -3.8230     1.5930    -1.8510 ho         1 38T       0.518000
     31 H13         -0.7270     1.8310    -1.2800 h1         1 38T       0.075700
     32 H14         -2.6750     2.9220    -0.0650 ho         1 38T       0.531000
@<TRIPOS>BOND
     1     1     2 2   
     2     2     3 1   
     3     2     9 1   
     4     3     4 1   
     5     3    19 1   
     6     4     5 2   
     7     4     6 1   
     8     6     7 1   
     9     6     8 2   
    10     7    20 1   
    11     7    21 1   
    12     7    22 1   
    13     8     9 1   
    14     8    23 1   
    15     9    10 1   
    16    10    11 1   
    17    10    17 1   
    18    10    24 1   
    19    11    12 1   
    20    12    13 1   
    21    12    15 1   
    22    12    25 1   
    23    13    14 1   
    24    13    26 1   
    25    13    27 1   
    26    14    28 1   
    27    15    16 1   
    28    15    17 1   
    29    15    29 1   
    30    16    30 1   
    31    17    18 1   
    32    17    31 1   
    33    18    32 1   
@<TRIPOS>SUBSTRUCTURE
     1 38T         1 TEMP              0 ****  ****    0 ROOT
