@<TRIPOS>MOLECULE
38U
   22    23     1     0     0
SMALL
No Charge or Current Charge


@<TRIPOS>ATOM
      1 C59         -0.8430     2.3460    -0.0210 c3         1 38U      -0.022900
      2 C58         -0.3880     0.8930    -0.0220 ce         1 38U      -0.119400
      3 C57          1.0280     0.5310    -0.0020 ca         1 38U      -0.034800
      4 C56          2.1840     1.3300     0.0210 ca         1 38U      -0.116000
      5 C55          3.4380     0.6880     0.0370 ca         1 38U      -0.127000
      6 C54          3.5140    -0.7220     0.0300 ca         1 38U      -0.147000
      7 C53          2.3380    -1.4990     0.0070 ca         1 38U      -0.102000
      8 C52          1.0940    -0.8480    -0.0090 ca         1 38U      -0.103300
      9 C51         -0.2830    -1.5070    -0.0340 c5         1 38U      -0.009900
     10 C50         -1.1930    -0.2170    -0.0420 cf         1 38U      -0.117400
     11 C2          -2.6970    -0.3110    -0.0660 c          1 38U       0.711200
     12 O3          -3.3680     0.7100    -0.0710 o          1 38U      -0.722000
     13 H4          -1.4350     2.5740    -0.9160 hc         1 38U       0.034033
     14 H5          -1.4650     2.5630     0.8550 hc         1 38U       0.034033
     15 H6          -0.0080     3.0530    -0.0030 hc         1 38U       0.034033
     16 H7           2.1270     2.4150     0.0260 ha         1 38U       0.104000
     17 H8           4.3500     1.2800     0.0550 ha         1 38U       0.088000
     18 H9           4.4850    -1.2120     0.0430 ha         1 38U       0.088000
     19 H10          2.3940    -2.5860     0.0020 ha         1 38U       0.098000
     20 H11         -0.4370    -2.1220    -0.9280 hc         1 38U       0.076700
     21 H12         -0.4650    -2.1320     0.8470 hc         1 38U       0.076700
     22 OXT         -3.1960    -1.4280    -0.0800 o          1 38U      -0.722000
@<TRIPOS>BOND
     1     1     2 1   
     2     1    13 1   
     3     1    14 1   
     4     1    15 1   
     5     2     3 1   
     6     2    10 2   
     7     3     4 ar  
     8     3     8 ar  
     9     4     5 ar  
    10     4    16 1   
    11     5     6 ar  
    12     5    17 1   
    13     6     7 ar  
    14     6    18 1   
    15     7     8 ar  
    16     7    19 1   
    17     8     9 1   
    18     9    10 1   
    19     9    20 1   
    20     9    21 1   
    21    10    11 1   
    22    11    12 1   
    23    11    22 1   
@<TRIPOS>SUBSTRUCTURE
     1 38U         1 TEMP              0 ****  ****    0 ROOT
