@<TRIPOS>MOLECULE
38U
   22    23     1     0     0
SMALL
bcc


@<TRIPOS>ATOM
      1 C59         -0.8170     2.3460    -0.0220 c3         1 38U      -0.022900
      2 C58         -0.4130     0.9120    -0.0050 ce         1 38U      -0.119400
      3 C57          1.0000     0.5270    -0.0270 ca         1 38U      -0.034800
      4 C56          2.1470     1.3120    -0.0600 ca         1 38U      -0.134000
      5 C55          3.3860     0.6800    -0.0710 ca         1 38U      -0.145000
      6 C54          3.4760    -0.7090    -0.0500 ca         1 38U      -0.165000
      7 C53          2.3250    -1.4940    -0.0190 ca         1 38U      -0.120000
      8 C52          1.0920    -0.8690    -0.0080 ca         1 38U      -0.103300
      9 C51         -0.2920    -1.4330     0.0230 c5         1 38U      -0.009900
     10 C50         -1.1690    -0.2110     0.0250 cf         1 38U      -0.117400
     11 C2          -2.6680    -0.3550     0.0570 c          1 38U       0.921800
     12 O3          -3.3690     0.6770     0.1150 o          1 38U      -0.827300
     13 H4          -0.4400     2.8400    -0.9220 hc         1 38U       0.034033
     14 H5          -1.8950     2.4570     0.0120 hc         1 38U       0.034033
     15 H6          -0.3810     2.8780     0.8270 hc         1 38U       0.034033
     16 H7           2.0870     2.3930    -0.0760 ha         1 38U       0.122000
     17 H8           4.2910     1.2750    -0.0970 ha         1 38U       0.106000
     18 H9           4.4500    -1.1830    -0.0590 ha         1 38U       0.106000
     19 H10          2.4020    -2.5750    -0.0030 ha         1 38U       0.116000
     20 H11         -0.4880    -2.0790    -0.8380 hc         1 38U       0.076700
     21 H12         -0.4580    -2.0600     0.9050 hc         1 38U       0.076700
     22 OXT         -3.0930    -1.5300     0.0230 o          1 38U      -0.827300
@<TRIPOS>BOND
     1     1     2 1   
     2     1    13 1   
     3     1    14 1   
     4     1    15 1   
     5     2     3 1   
     6     2    10 2   
     7     3     4 ar  
     8     3     8 ar  
     9     4     5 ar  
    10     4    16 1   
    11     5     6 ar  
    12     5    17 1   
    13     6     7 ar  
    14     6    18 1   
    15     7     8 ar  
    16     7    19 1   
    17     8     9 1   
    18     9    10 1   
    19     9    20 1   
    20     9    21 1   
    21    10    11 1   
    22    11    12 1   
    23    11    22 1   
@<TRIPOS>SUBSTRUCTURE
     1 38U         1 TEMP              0 ****  ****    0 ROOT
