@<TRIPOS>MOLECULE
38W
   50    54     1     0     0
SMALL
bcc


@<TRIPOS>ATOM
      1 C01          8.0700    -0.5270     0.0490 c3         1 38W      -0.107433
      2 C02          6.7140    -1.2240    -0.0190 c3         1 38W       0.272200
      3 C03          6.5660    -1.9500    -1.3570 c3         1 38W      -0.107433
      4 C04          6.5980    -2.2100     1.1420 c3         1 38W      -0.107433
      5 N05          5.7100    -0.1590     0.1170 nu         1 38W      -0.872900
      6 C06          4.3870    -0.3620     0.1020 cc         1 38W       0.722300
      7 N07          3.7000    -1.4620     0.1320 nd         1 38W      -0.444000
      8 N08          2.3780    -1.0800     0.1420 nd         1 38W      -0.343000
      9 C09          2.3420     0.2010     0.1100 cc         1 38W       0.515900
     10 O10          3.5940     0.7240     0.0850 os         1 38W      -0.412800
     11 C11          1.1930     1.0890     0.0950 ca         1 38W      -0.167500
     12 C12          1.3680     2.4870     0.1190 ca         1 38W      -0.084000
     13 C13          0.2840     3.3380     0.1060 ca         1 38W      -0.154000
     14 C14         -0.9850     2.7690     0.0670 ca         1 38W      -0.049200
     15 N15         -2.2130     3.3650     0.0440 na         1 38W      -0.164400
     16 C16         -3.1800     2.4200     0.0060 cc         1 38W      -0.050100
     17 C17         -2.6130     1.1680     0.0030 cd         1 38W      -0.217000
     18 C18         -3.3520    -0.0810    -0.0340 ca         1 38W       0.766800
     19 N19         -2.6580    -1.2160    -0.0270 nb         1 38W      -0.703000
     20 C20         -3.3650    -2.3410    -0.0590 ca         1 38W       0.446200
     21 C21         -4.7420    -2.3600    -0.1010 ca         1 38W      -0.384600
     22 C22         -5.3860    -1.1190    -0.1070 ca         1 38W       0.501600
     23 N23         -4.6840     0.0050    -0.0740 nb         1 38W      -0.731000
     24 C24         -6.8520    -0.9760    -0.1520 cx         1 38W      -0.199000
     25 C25         -7.6960    -1.9590    -0.9260 cx         1 38W      -0.114900
     26 C26         -7.7410    -1.9660     0.5580 cx         1 38W      -0.114900
     27 C27         -1.1890     1.3710     0.0430 ca         1 38W      -0.070800
     28 C28         -0.0790     0.5290     0.0570 ca         1 38W      -0.016000
     29 H1           8.1900     0.1990    -0.7590 hc         1 38W       0.048144
     30 H2           8.1970    -0.0050     0.9990 hc         1 38W       0.048144
     31 H3           8.8720    -1.2590    -0.0430 hc         1 38W       0.048144
     32 H4           5.6010    -2.4510    -1.4340 hc         1 38W       0.048144
     33 H5           6.6580    -1.2530    -2.1920 hc         1 38W       0.048144
     34 H6           7.3430    -2.7080    -1.4630 hc         1 38W       0.048144
     35 H7           7.4040    -2.9410     1.0790 hc         1 38W       0.048144
     36 H8           6.6820    -1.6930     2.0990 hc         1 38W       0.048144
     37 H9           5.6530    -2.7500     1.1250 hc         1 38W       0.048144
     38 H10          6.0090     0.7720    -0.1280 hn         1 38W       0.439800
     39 H11          2.3620     2.9110     0.1500 ha         1 38W       0.140000
     40 H12          0.4200     4.4110     0.1240 ha         1 38W       0.134000
     41 H13         -2.3820     4.3580     0.0550 hn         1 38W       0.302700
     42 H14         -4.2220     2.6940    -0.0170 h4         1 38W       0.181000
     43 H15         -2.8020    -3.2670    -0.0520 h4         1 38W       0.025100
     44 H16         -5.2840    -3.2950    -0.1270 ha         1 38W       0.150000
     45 H17         -7.1840     0.0550    -0.1560 hc         1 38W       0.101700
     46 H18         -8.5390    -1.5540    -1.4690 hc         1 38W       0.075700
     47 H19         -7.1860    -2.7690    -1.4320 hc         1 38W       0.075700
     48 H20         -7.2650    -2.7830     1.0870 hc         1 38W       0.075700
     49 H21         -8.6170    -1.5660     1.0520 hc         1 38W       0.075700
     50 H22         -0.2070    -0.5430     0.0370 ha         1 38W       0.179000
@<TRIPOS>BOND
     1     1     2 1   
     2     1    29 1   
     3     1    30 1   
     4     1    31 1   
     5     2     3 1   
     6     2     4 1   
     7     2     5 1   
     8     3    32 1   
     9     3    33 1   
    10     3    34 1   
    11     4    35 1   
    12     4    36 1   
    13     4    37 1   
    14     5     6 1   
    15     5    38 1   
    16     6     7 2   
    17     6    10 1   
    18     7     8 1   
    19     8     9 2   
    20     9    10 1   
    21     9    11 1   
    22    11    12 ar  
    23    11    28 ar  
    24    12    13 ar  
    25    12    39 1   
    26    13    14 ar  
    27    13    40 1   
    28    14    15 1   
    29    14    27 ar  
    30    15    16 1   
    31    15    41 1   
    32    16    17 2   
    33    16    42 1   
    34    17    18 1   
    35    17    27 1   
    36    18    19 ar  
    37    18    23 ar  
    38    19    20 ar  
    39    20    21 ar  
    40    20    43 1   
    41    21    22 ar  
    42    21    44 1   
    43    22    23 ar  
    44    22    24 1   
    45    24    25 1   
    46    24    26 1   
    47    24    45 1   
    48    25    26 1   
    49    25    46 1   
    50    25    47 1   
    51    26    48 1   
    52    26    49 1   
    53    27    28 ar  
    54    28    50 1   
@<TRIPOS>SUBSTRUCTURE
     1 38W         1 TEMP              0 ****  ****    0 ROOT
