@<TRIPOS>MOLECULE
38W
   50    54     1     0     0
SMALL
No Charge or Current Charge


@<TRIPOS>ATOM
      1 C01          7.9960    -0.6470    -0.3290 c3         1 38W      -0.107433
      2 C02          6.6180    -1.3440    -0.2740 c3         1 38W       0.272200
      3 C03          6.3940    -2.1460    -1.5780 c3         1 38W      -0.107433
      4 C04          6.5530    -2.2630     0.9690 c3         1 38W      -0.107433
      5 N05          5.6140    -0.2800    -0.1630 nu         1 38W      -0.928100
      6 C06          4.2540    -0.3740    -0.0810 cc         1 38W       0.677900
      7 N07          3.5320    -1.4770    -0.0870 nd         1 38W      -0.444000
      8 N08          2.2260    -1.0640     0.0150 nd         1 38W      -0.343000
      9 C09          2.2690     0.2590     0.0730 cc         1 38W       0.471500
     10 O10          3.5310     0.7550     0.0160 os         1 38W      -0.324000
     11 C11          1.1350     1.1820     0.1870 ca         1 38W      -0.167500
     12 C12          1.3430     2.5900     0.2330 ca         1 38W      -0.066000
     13 C13          0.2530     3.4800     0.3340 ca         1 38W      -0.136000
     14 C14         -1.0350     2.9380     0.3950 ca         1 38W      -0.049200
     15 N15         -2.2500     3.5980     0.4830 na         1 38W      -0.214700
     16 C16         -3.3080     2.6660     0.5160 cc         1 38W      -0.100100
     17 C17         -2.6870     1.4230     0.4350 cd         1 38W      -0.217000
     18 C18         -3.3860     0.1280     0.5100 ca         1 38W       0.240800
     19 N19         -2.7980    -0.8660     1.2120 nb         1 38W      -0.177000
     20 C20         -3.4500    -2.0430     1.2620 ca         1 38W       0.117900
     21 C21         -4.6820    -2.2270     0.6160 ca         1 38W      -0.236000
     22 C22         -5.2200    -1.1350    -0.0930 ca         1 38W       0.173300
     23 N23         -4.5660     0.0430    -0.1440 nb         1 38W      -0.205000
     24 C24         -6.5350    -1.2100    -0.8280 cx         1 38W      -0.199000
     25 C25         -6.9880    -2.4620    -1.5490 cx         1 38W      -0.114900
     26 C26         -7.7100    -2.0080    -0.3030 cx         1 38W      -0.114900
     27 C27         -1.2470     1.5890     0.3610 ca         1 38W      -0.070800
     28 C28         -0.1880     0.6740     0.2490 ca         1 38W       0.002000
     29 H1           8.0650     0.0240    -1.1940 hc         1 38W       0.048144
     30 H2           8.1760    -0.0570     0.5780 hc         1 38W       0.048144
     31 H3           8.8010    -1.3870    -0.4130 hc         1 38W       0.048144
     32 H4           5.4460    -2.6950    -1.5580 hc         1 38W       0.048144
     33 H5           6.3850    -1.4810    -2.4500 hc         1 38W       0.048144
     34 H6           7.1960    -2.8800    -1.7210 hc         1 38W       0.048144
     35 H7           7.3630    -3.0020     0.9430 hc         1 38W       0.048144
     36 H8           6.6570    -1.6800     1.8920 hc         1 38W       0.048144
     37 H9           5.6080    -2.8130     1.0170 hc         1 38W       0.048144
     38 H10          5.9420     0.6810    -0.1390 hn         1 38W       0.495000
     39 H11          2.3500     2.9990     0.1850 ha         1 38W       0.122000
     40 H12          0.4120     4.5560     0.3620 ha         1 38W       0.116000
     41 H13         -2.3580     4.6070     0.5270 hn         1 38W       0.353000
     42 H14         -4.3550     2.9460     0.6050 h4         1 38W       0.231000
     43 H15         -2.9790    -2.8450     1.8270 h4         1 38W       0.025100
     44 H16         -5.1940    -3.1830     0.6680 ha         1 38W       0.132000
     45 H17         -6.7830    -0.2690    -1.3160 hc         1 38W       0.101700
     46 H18         -7.4980    -2.3410    -2.5020 hc         1 38W       0.075700
     47 H19         -6.3670    -3.3520    -1.4800 hc         1 38W       0.075700
     48 H20         -7.5750    -2.5920     0.6040 hc         1 38W       0.075700
     49 H21         -8.7040    -1.5820    -0.4210 hc         1 38W       0.075700
     50 H22         -0.3800    -0.3950     0.2040 ha         1 38W       0.161000
@<TRIPOS>BOND
     1     1     2 1   
     2     1    29 1   
     3     1    30 1   
     4     1    31 1   
     5     2     3 1   
     6     2     4 1   
     7     2     5 1   
     8     3    32 1   
     9     3    33 1   
    10     3    34 1   
    11     4    35 1   
    12     4    36 1   
    13     4    37 1   
    14     5     6 1   
    15     5    38 1   
    16     6     7 2   
    17     6    10 1   
    18     7     8 1   
    19     8     9 2   
    20     9    10 1   
    21     9    11 1   
    22    11    12 ar  
    23    11    28 ar  
    24    12    13 ar  
    25    12    39 1   
    26    13    14 ar  
    27    13    40 1   
    28    14    15 1   
    29    14    27 ar  
    30    15    16 1   
    31    15    41 1   
    32    16    17 2   
    33    16    42 1   
    34    17    18 1   
    35    17    27 1   
    36    18    19 ar  
    37    18    23 ar  
    38    19    20 ar  
    39    20    21 ar  
    40    20    43 1   
    41    21    22 ar  
    42    21    44 1   
    43    22    23 ar  
    44    22    24 1   
    45    24    25 1   
    46    24    26 1   
    47    24    45 1   
    48    25    26 1   
    49    25    46 1   
    50    25    47 1   
    51    26    48 1   
    52    26    49 1   
    53    27    28 ar  
    54    28    50 1   
@<TRIPOS>SUBSTRUCTURE
     1 38W         1 TEMP              0 ****  ****    0 ROOT
