@<TRIPOS>MOLECULE
38X
   92    96     1     0     0
SMALL
No Charge or Current Charge


@<TRIPOS>ATOM
      1 C59          7.5690    -1.2020    -0.4670 c3         1 38X      -0.047900
      2 C58          6.8690    -0.7500     0.8050 ce         1 38X       0.033600
      3 C57          7.5410    -0.7620     2.1030 ca         1 38X      -0.084800
      4 C56          8.8400    -1.1610     2.4640 ca         1 38X      -0.076000
      5 C55          9.2130    -1.0590     3.8190 ca         1 38X      -0.118000
      6 C54          8.2970    -0.5690     4.7750 ca         1 38X      -0.100000
      7 C53          7.0010    -0.1780     4.3840 ca         1 38X      -0.099000
      8 C52          6.6380    -0.2830     3.0320 ca         1 38X      -0.077300
      9 C51          5.2920     0.0840     2.4150 c5         1 38X      -0.004900
     10 C50          5.5890    -0.2810     0.9050 cf         1 38X      -0.219400
     11 C2           4.5830    -0.1120    -0.1870 c          1 38X       0.629300
     12 O3           4.8010    -0.3980    -1.3550 o          1 38X      -0.618100
     13 N1           3.3680     0.3890     0.2180 ns         1 38X      -0.498900
     14 C11          2.2130     0.6610    -0.6650 c3         1 38X       0.039700
     15 C12          2.4400     1.9580    -1.4740 c3         1 38X      -0.113100
     16 C13          0.8980     0.7120     0.1700 c          1 38X       0.600100
     17 O14          0.8900     0.6840     1.3960 o          1 38X      -0.620100
     18 N15         -0.2690     0.7530    -0.5680 ns         1 38X      -0.471900
     19 C16         -1.6350     0.8190     0.0060 c3         1 38X       0.035700
     20 C26         -2.5910    -0.1300    -0.7670 c          1 38X       0.589100
     21 O27         -2.3100    -0.6180    -1.8540 o          1 38X      -0.589100
     22 C17         -2.1850     2.2700     0.0240 c3         1 38X      -0.009200
     23 C66         -1.2570     3.2690     0.6680 cc         1 38X      -0.149400
     24 C65         -1.0930     3.5120     2.0280 cd         1 38X      -0.150100
     25 C67         -0.3300     4.1390    -0.0020 ca         1 38X      -0.092800
     26 N69         -0.0900     4.4940     2.2190 na         1 38X      -0.219700
     27 C68          0.3460     4.8430     0.9550 ca         1 38X      -0.048200
     28 C63         -0.0820     4.3240    -1.3700 ca         1 38X      -0.074000
     29 C60          1.3320     5.7790     0.6150 ca         1 38X      -0.125000
     30 C62          0.9060     5.2610    -1.7420 ca         1 38X      -0.133000
     31 C61          1.6120     5.9840    -0.7530 ca         1 38X      -0.091000
     32 N28         -3.7940    -0.3850    -0.1390 ns         1 38X      -0.492900
     33 C29         -4.8540    -1.2890    -0.6480 c3         1 38X       0.015700
     34 C30         -4.8290    -2.6610     0.0820 c3         1 38X      -0.085400
     35 C41         -3.5410    -3.5240    -0.1020 c6         1 38X      -0.059700
     36 C42         -3.3520    -4.0020    -1.5720 c6         1 38X      -0.072900
     37 C43         -2.0730    -4.8620    -1.7290 c6         1 38X      -0.072900
     38 C44         -2.0880    -6.0710    -0.7640 c6         1 38X      -0.075400
     39 C45         -2.2780    -5.6100     0.7010 c6         1 38X      -0.072900
     40 C46         -3.5560    -4.7490     0.8560 c6         1 38X      -0.072900
     41 C31         -6.2490    -0.6080    -0.5330 c          1 38X       0.564100
     42 O32         -6.4500     0.3430     0.2170 o          1 38X      -0.516100
     43 C37         -7.3680    -1.1710    -1.4290 c3         1 38X      -0.164700
     44 C38         -7.8330    -0.1150    -2.4670 c3         1 38X      -0.081100
     45 C39         -8.5180    -1.7090    -0.5500 c3         1 38X       0.171600
     46 O40         -9.4490    -2.4390    -1.3570 oh         1 38X      -0.662000
     47 H4           8.6180    -1.4680    -0.3020 hc         1 38X       0.054700
     48 H5           7.0740    -2.0820    -0.8950 hc         1 38X       0.054700
     49 H6           7.5560    -0.4100    -1.2250 hc         1 38X       0.054700
     50 H7           9.5460    -1.5400     1.7300 ha         1 38X       0.117000
     51 H8          10.2120    -1.3600     4.1290 ha         1 38X       0.112000
     52 H9           8.5930    -0.4930     5.8200 ha         1 38X       0.112000
     53 H10          6.2920     0.1990     5.1180 ha         1 38X       0.116000
     54 H11          4.4700    -0.5090     2.8330 hc         1 38X       0.076200
     55 H12          5.0520     1.1460     2.5470 hc         1 38X       0.076200
     56 H1           3.2580     0.5710     1.2080 hn         1 38X       0.334500
     57 H13          2.1070    -0.1770    -1.3670 h1         1 38X       0.083700
     58 H14          2.5110     2.8230    -0.8030 hc         1 38X       0.051367
     59 H15          3.3660     1.9000    -2.0570 hc         1 38X       0.051367
     60 H16          1.6160     2.1310    -2.1750 hc         1 38X       0.051367
     61 H17         -0.1750     0.7240    -1.5770 hn         1 38X       0.329500
     62 H18         -1.6000     0.4510     1.0400 h1         1 38X       0.082700
     63 H2          -2.4000     2.5800    -1.0060 hc         1 38X       0.061700
     64 H3          -3.1480     2.2840     0.5480 hc         1 38X       0.061700
     65 H24         -1.6020     3.0480     2.8690 h4         1 38X       0.211000
     66 H39          0.2450     4.8630     3.1040 hn         1 38X       0.352000
     67 H19         -0.6280     3.7620    -2.1240 ha         1 38X       0.113000
     68 H23          1.8670     6.3340     1.3820 ha         1 38X       0.115000
     69 H21          1.1250     5.4260    -2.7950 ha         1 38X       0.116000
     70 H22          2.3730     6.7040    -1.0480 ha         1 38X       0.113000
     71 H25         -3.9540     0.0820     0.7470 hn         1 38X       0.318500
     72 H26         -4.6930    -1.4550    -1.7210 h1         1 38X       0.089700
     73 H27         -4.9880    -2.4710     1.1510 hc         1 38X       0.051700
     74 H28         -5.6940    -3.2510    -0.2440 hc         1 38X       0.051700
     75 H29         -2.6870    -2.8900     0.1760 hc         1 38X       0.047700
     76 H30         -4.2270    -4.5840    -1.8900 hc         1 38X       0.040450
     77 H31         -3.2880    -3.1440    -2.2530 hc         1 38X       0.040450
     78 H32         -1.9870    -5.2150    -2.7660 hc         1 38X       0.040450
     79 H33         -1.1860    -4.2430    -1.5360 hc         1 38X       0.040450
     80 H34         -2.8970    -6.7590    -1.0440 hc         1 38X       0.039700
     81 H35         -1.1500    -6.6360    -0.8590 hc         1 38X       0.039700
     82 H36         -2.3360    -6.4850     1.3620 hc         1 38X       0.040450
     83 H38         -1.4010    -5.0320     1.0240 hc         1 38X       0.040450
     84 H37         -3.6410    -4.4100     1.8980 hc         1 38X       0.040450
     85 H20         -4.4420    -5.3680     0.6570 hc         1 38X       0.040450
     86 H40         -6.9520    -2.0180    -1.9880 hc         1 38X       0.068700
     87 H41         -8.2880     0.7510    -1.9690 hc         1 38X       0.049700
     88 H42         -6.9840     0.2400    -3.0630 hc         1 38X       0.049700
     89 H43         -8.5730    -0.5400    -3.1560 hc         1 38X       0.049700
     90 H44         -8.1020    -2.3660     0.2260 h1         1 38X       0.027700
     91 H45         -9.0190    -0.8710    -0.0460 h1         1 38X       0.027700
     92 H46        -10.1660    -2.7470    -0.7590 ho         1 38X       0.445000
@<TRIPOS>BOND
     1     1     2 1   
     2     1    47 1   
     3     1    48 1   
     4     1    49 1   
     5     2     3 1   
     6     2    10 2   
     7     3     4 ar  
     8     3     8 ar  
     9     4     5 ar  
    10     4    50 1   
    11     5     6 ar  
    12     5    51 1   
    13     6     7 ar  
    14     6    52 1   
    15     7     8 ar  
    16     7    53 1   
    17     8     9 1   
    18     9    10 1   
    19     9    54 1   
    20     9    55 1   
    21    10    11 1   
    22    11    12 2   
    23    11    13 1   
    24    13    14 1   
    25    13    56 1   
    26    14    15 1   
    27    14    16 1   
    28    14    57 1   
    29    15    58 1   
    30    15    59 1   
    31    15    60 1   
    32    16    17 2   
    33    16    18 1   
    34    18    19 1   
    35    18    61 1   
    36    19    20 1   
    37    19    22 1   
    38    19    62 1   
    39    20    21 2   
    40    20    32 1   
    41    22    23 1   
    42    22    63 1   
    43    22    64 1   
    44    23    24 2   
    45    23    25 1   
    46    24    26 1   
    47    24    65 1   
    48    25    27 ar  
    49    25    28 ar  
    50    26    27 1   
    51    26    66 1   
    52    27    29 ar  
    53    28    30 ar  
    54    28    67 1   
    55    29    31 ar  
    56    29    68 1   
    57    30    31 ar  
    58    30    69 1   
    59    31    70 1   
    60    32    33 1   
    61    32    71 1   
    62    33    34 1   
    63    33    41 1   
    64    33    72 1   
    65    34    35 1   
    66    34    73 1   
    67    34    74 1   
    68    35    36 1   
    69    35    40 1   
    70    35    75 1   
    71    36    37 1   
    72    36    76 1   
    73    36    77 1   
    74    37    38 1   
    75    37    78 1   
    76    37    79 1   
    77    38    39 1   
    78    38    80 1   
    79    38    81 1   
    80    39    40 1   
    81    39    82 1   
    82    39    83 1   
    83    40    84 1   
    84    40    85 1   
    85    41    42 2   
    86    41    43 1   
    87    43    44 1   
    88    43    45 1   
    89    43    86 1   
    90    44    87 1   
    91    44    88 1   
    92    44    89 1   
    93    45    46 1   
    94    45    90 1   
    95    45    91 1   
    96    46    92 1   
@<TRIPOS>SUBSTRUCTURE
     1 38X         1 TEMP              0 ****  ****    0 ROOT
