@<TRIPOS>MOLECULE
38X
   92    96     1     0     0
SMALL
abcg2


@<TRIPOS>ATOM
      1 C59          7.2150     0.4940    -2.3120 c3         1 38X      -0.047900
      2 C58          6.6440    -0.3770    -1.2440 ce         1 38X       0.033600
      3 C57          7.3650    -1.5210    -0.6860 ca         1 38X      -0.084800
      4 C56          8.6250    -2.0260    -0.9850 ca         1 38X      -0.076000
      5 C55          9.0730    -3.1450    -0.2930 ca         1 38X      -0.118000
      6 C54          8.2770    -3.7480     0.6780 ca         1 38X      -0.100000
      7 C53          7.0160    -3.2410     0.9780 ca         1 38X      -0.099000
      8 C52          6.5690    -2.1270     0.2920 ca         1 38X      -0.077300
      9 C51          5.2830    -1.3760     0.4030 c5         1 38X      -0.004900
     10 C50          5.4440    -0.2850    -0.6220 cf         1 38X      -0.219400
     11 C2           4.4250     0.7380    -0.9030 c          1 38X       0.629300
     12 O3           4.5550     1.5790    -1.7880 o          1 38X      -0.618100
     13 N1           3.3240     0.6850    -0.1260 ns         1 38X      -0.498900
     14 C11          2.2450     1.6340    -0.2410 c3         1 38X       0.039700
     15 C12          2.5270     2.9350     0.5180 c3         1 38X      -0.113100
     16 C13          0.9810     0.9930     0.3160 c          1 38X       0.600100
     17 O14          1.0180     0.1570     1.2070 o          1 38X      -0.620100
     18 N15         -0.1550     1.4770    -0.1990 ns         1 38X      -0.471900
     19 C16         -1.4580     1.1330     0.2940 c3         1 38X       0.035700
     20 C26         -1.9850    -0.1340    -0.3800 c          1 38X       0.589100
     21 O27         -1.5080    -0.5820    -1.4070 o          1 38X      -0.589100
     22 C17         -2.4290     2.3110     0.0800 c3         1 38X      -0.009200
     23 C66         -1.9490     3.5490     0.7610 cc         1 38X      -0.149400
     24 C65         -2.1500     3.8840     2.0710 cd         1 38X      -0.150100
     25 C67         -1.1060     4.5710     0.2150 ca         1 38X      -0.092800
     26 N69         -1.4860     5.0390     2.3690 na         1 38X      -0.219700
     27 C68         -0.8320     5.4830     1.2580 ca         1 38X      -0.048200
     28 C63         -0.5540     4.8040    -1.0510 ca         1 38X      -0.074000
     29 C60         -0.0170     6.6000     1.0740 ca         1 38X      -0.125000
     30 C62          0.2550     5.9070    -1.2370 ca         1 38X      -0.133000
     31 C61          0.5220     6.7960    -0.1830 ca         1 38X      -0.091000
     32 N28         -3.0280    -0.7000     0.2510 ns         1 38X      -0.492900
     33 C29         -3.7680    -1.7820    -0.3370 c3         1 38X       0.015700
     34 C30         -4.8630    -2.2610     0.6240 c3         1 38X      -0.085400
     35 C41         -4.3570    -2.8290     1.9500 c6         1 38X      -0.059700
     36 C42         -3.4980    -4.0780     1.7630 c6         1 38X      -0.072900
     37 C43         -3.0580    -4.6690     3.1000 c6         1 38X      -0.072900
     38 C44         -4.2540    -4.9620     4.0010 c6         1 38X      -0.075400
     39 C45         -5.1060    -3.7140     4.1990 c6         1 38X      -0.072900
     40 C46         -5.5480    -3.1320     2.8620 c6         1 38X      -0.072900
     41 C31         -4.4370    -1.3650    -1.6400 c          1 38X       0.564100
     42 O32         -4.7090    -0.2120    -1.8730 o          1 38X      -0.516100
     43 C37         -4.7410    -2.4900    -2.6020 c3         1 38X      -0.164700
     44 C38         -3.5940    -2.5670    -3.6170 c3         1 38X      -0.081100
     45 C39         -6.0960    -2.2890    -3.2670 c3         1 38X       0.171600
     46 O40         -6.3620    -3.4130    -4.0740 oh         1 38X      -0.662000
     47 H4           8.2150     0.1690    -2.5930 hc         1 38X       0.054700
     48 H5           6.5940     0.4850    -3.2060 hc         1 38X       0.054700
     49 H6           7.2800     1.5310    -1.9840 hc         1 38X       0.054700
     50 H7           9.2540    -1.5660    -1.7360 ha         1 38X       0.117000
     51 H8          10.0520    -3.5520    -0.5110 ha         1 38X       0.112000
     52 H9           8.6450    -4.6190     1.2040 ha         1 38X       0.112000
     53 H10          6.4010    -3.7130     1.7340 ha         1 38X       0.116000
     54 H11          4.4210    -2.0200     0.1980 hc         1 38X       0.076200
     55 H12          5.1380    -0.9800     1.4150 hc         1 38X       0.076200
     56 H1           3.2650     0.0300     0.6380 hn         1 38X       0.334500
     57 H13          2.0990     1.8650    -1.2980 h1         1 38X       0.083700
     58 H14          2.6830     2.7350     1.5790 hc         1 38X       0.051367
     59 H15          3.4240     3.4080     0.1220 hc         1 38X       0.051367
     60 H16          1.7000     3.6390     0.4180 hc         1 38X       0.051367
     61 H17         -0.0980     2.0850    -1.0000 hn         1 38X       0.329500
     62 H18         -1.3810     0.9500     1.3690 h1         1 38X       0.082700
     63 H2          -2.5580     2.4820    -0.9930 hc         1 38X       0.061700
     64 H3          -3.4120     2.0260     0.4580 hc         1 38X       0.061700
     65 H24         -2.7260     3.3730     2.8270 h4         1 38X       0.211000
     66 H39         -1.4830     5.4850     3.2710 hn         1 38X       0.352000
     67 H19         -0.7620     4.1380    -1.8810 ha         1 38X       0.113000
     68 H23          0.1870     7.2880     1.8850 ha         1 38X       0.115000
     69 H21          0.6880     6.0960    -2.2110 ha         1 38X       0.116000
     70 H22          1.1600     7.6520    -0.3590 ha         1 38X       0.113000
     71 H25         -3.4040    -0.2500     1.0710 hn         1 38X       0.318500
     72 H26         -3.0920    -2.6160    -0.5540 h1         1 38X       0.089700
     73 H27         -5.5440    -1.4260     0.8190 hc         1 38X       0.051700
     74 H28         -5.4600    -3.0280     0.1190 hc         1 38X       0.051700
     75 H29         -3.7440    -2.0700     2.4540 hc         1 38X       0.047700
     76 H30         -4.0770    -4.8250     1.2060 hc         1 38X       0.040450
     77 H31         -2.6180    -3.8490     1.1570 hc         1 38X       0.040450
     78 H32         -2.4770    -5.5790     2.9310 hc         1 38X       0.040450
     79 H33         -2.3900    -3.9620     3.6050 hc         1 38X       0.040450
     80 H34         -4.8650    -5.7480     3.5440 hc         1 38X       0.039700
     81 H35         -3.9160    -5.3510     4.9650 hc         1 38X       0.039700
     82 H36         -5.9790    -3.9420     4.8160 hc         1 38X       0.040450
     83 H38         -4.5260    -2.9630     4.7460 hc         1 38X       0.040450
     84 H37         -6.1320    -2.2210     3.0200 hc         1 38X       0.040450
     85 H20         -6.2120    -3.8440     2.3570 hc         1 38X       0.040450
     86 H40         -4.7630    -3.4270    -2.0340 hc         1 38X       0.068700
     87 H41         -3.5750    -1.6740    -4.2420 hc         1 38X       0.049700
     88 H42         -2.6270    -2.6510    -3.1230 hc         1 38X       0.049700
     89 H43         -3.7140    -3.4350    -4.2630 hc         1 38X       0.049700
     90 H44         -6.8660    -2.1640    -2.4940 h1         1 38X       0.027700
     91 H45         -6.0760    -1.3640    -3.8560 h1         1 38X       0.027700
     92 H46         -7.2040    -3.2710    -4.5160 ho         1 38X       0.445000
@<TRIPOS>BOND
     1     1     2 1   
     2     1    47 1   
     3     1    48 1   
     4     1    49 1   
     5     2     3 1   
     6     2    10 2   
     7     3     4 ar  
     8     3     8 ar  
     9     4     5 ar  
    10     4    50 1   
    11     5     6 ar  
    12     5    51 1   
    13     6     7 ar  
    14     6    52 1   
    15     7     8 ar  
    16     7    53 1   
    17     8     9 1   
    18     9    10 1   
    19     9    54 1   
    20     9    55 1   
    21    10    11 1   
    22    11    12 2   
    23    11    13 1   
    24    13    14 1   
    25    13    56 1   
    26    14    15 1   
    27    14    16 1   
    28    14    57 1   
    29    15    58 1   
    30    15    59 1   
    31    15    60 1   
    32    16    17 2   
    33    16    18 1   
    34    18    19 1   
    35    18    61 1   
    36    19    20 1   
    37    19    22 1   
    38    19    62 1   
    39    20    21 2   
    40    20    32 1   
    41    22    23 1   
    42    22    63 1   
    43    22    64 1   
    44    23    24 2   
    45    23    25 1   
    46    24    26 1   
    47    24    65 1   
    48    25    27 ar  
    49    25    28 ar  
    50    26    27 1   
    51    26    66 1   
    52    27    29 ar  
    53    28    30 ar  
    54    28    67 1   
    55    29    31 ar  
    56    29    68 1   
    57    30    31 ar  
    58    30    69 1   
    59    31    70 1   
    60    32    33 1   
    61    32    71 1   
    62    33    34 1   
    63    33    41 1   
    64    33    72 1   
    65    34    35 1   
    66    34    73 1   
    67    34    74 1   
    68    35    36 1   
    69    35    40 1   
    70    35    75 1   
    71    36    37 1   
    72    36    76 1   
    73    36    77 1   
    74    37    38 1   
    75    37    78 1   
    76    37    79 1   
    77    38    39 1   
    78    38    80 1   
    79    38    81 1   
    80    39    40 1   
    81    39    82 1   
    82    39    83 1   
    83    40    84 1   
    84    40    85 1   
    85    41    42 2   
    86    41    43 1   
    87    43    44 1   
    88    43    45 1   
    89    43    86 1   
    90    44    87 1   
    91    44    88 1   
    92    44    89 1   
    93    45    46 1   
    94    45    90 1   
    95    45    91 1   
    96    46    92 1   
@<TRIPOS>SUBSTRUCTURE
     1 38X         1 TEMP              0 ****  ****    0 ROOT
