@<TRIPOS>MOLECULE
38Z
   77    83     1     0     0
SMALL
No Charge or Current Charge


@<TRIPOS>ATOM
      1 O1           4.2280     0.6450     0.3980 o          1 38Z      -0.565100
      2 C20          4.0510     1.2720    -0.6420 c          1 38Z       0.612100
      3 N5           5.0430     1.5710    -1.5700 ns         1 38Z      -0.148000
      4 C21          6.4290     1.2560    -1.6200 ca         1 38Z      -0.041000
      5 C26          7.0640     0.3940    -0.6930 ca         1 38Z      -0.096000
      6 C25          8.4410     0.1620    -0.8400 ca         1 38Z      -0.089000
      7 C27          9.3560    -0.6450    -0.1030 cc         1 38Z      -0.065300
      8 C28          9.1110    -1.4270     1.1110 ca         1 38Z       0.012200
      9 C32          8.2270    -0.9840     2.1110 ca         1 38Z      -0.156000
     10 C31          8.0340    -1.7660     3.2620 ca         1 38Z       0.339400
     11 N6           8.6680    -2.9430     3.4690 nb         1 38Z      -0.660000
     12 C30          9.5270    -3.3670     2.5140 ca         1 38Z       0.339400
     13 C29          9.7790    -2.6450     1.3360 ca         1 38Z      -0.156000
     14 N7          10.5800    -0.5570    -0.7570 na         1 38Z       0.025500
     15 N8          10.5210     0.2950    -1.8690 nc         1 38Z      -0.264400
     16 C24          9.1820     0.6990    -1.8670 ca         1 38Z      -0.095000
     17 C23          8.5700     1.5510    -2.7970 ca         1 38Z      -0.049000
     18 C22          7.1930     1.8290    -2.6650 ca         1 38Z      -0.141000
     19 C19          2.7100     1.8740    -1.1420 c5         1 38Z      -0.153700
     20 C            2.1040     2.8530    -0.0780 c5         1 38Z      -0.074400
     21 C18          1.6490     0.7400    -1.2730 c5         1 38Z       0.172800
     22 N            0.7590     0.9720    -0.1120 n3         1 38Z      -0.680600
     23 C1           0.6150     2.4420    -0.0670 c5         1 38Z       0.156800
     24 C2          -0.5150     0.1830    -0.1200 c3         1 38Z       0.093800
     25 C3          -1.4410     0.2080     1.1440 c          1 38Z       0.609100
     26 O           -1.1720     0.8850     2.1320 o          1 38Z      -0.577100
     27 N1          -2.5960    -0.6150     1.1450 n          1 38Z      -0.422800
     28 C7          -3.1620    -1.2700    -0.0690 c6         1 38Z       0.092500
     29 C6          -4.5100    -0.6170    -0.4910 c6         1 38Z       0.182300
     30 N2          -5.4830    -0.5550     0.6450 nh         1 38Z      -0.794400
     31 C5          -4.9090     0.0220     1.9020 c6         1 38Z       0.182300
     32 C4          -3.5560    -0.6420     2.2830 c6         1 38Z       0.092500
     33 C8          -6.8770    -0.4840     0.4110 ca         1 38Z       0.322000
     34 C13         -7.3940     0.0940    -0.7610 ca         1 38Z      -0.185000
     35 C12         -8.7810     0.1570    -0.9800 ca         1 38Z      -0.030500
     36 C11         -9.7040    -0.3600    -0.0300 cp         1 38Z      -0.195500
     37 C10         -9.1600    -0.9440     1.1470 ca         1 38Z      -0.030500
     38 C9          -7.7730    -1.0010     1.3590 ca         1 38Z      -0.185000
     39 C14        -11.1940    -0.2950    -0.2620 cp         1 38Z       0.206500
     40 N4         -12.0050    -0.8080     0.6920 nb         1 38Z      -0.185500
     41 C17        -13.3360    -0.7500     0.4870 ca         1 38Z       0.117400
     42 C16        -13.8690    -0.1760    -0.6770 ca         1 38Z      -0.231000
     43 C15        -12.9610     0.3340    -1.6180 ca         1 38Z       0.117400
     44 N3         -11.6310     0.2740    -1.4090 nb         1 38Z      -0.185500
     45 H1           4.7200     2.1160    -2.3590 hn         1 38Z       0.146000
     46 H2           6.5150    -0.0970     0.1010 ha         1 38Z       0.153000
     47 H3           7.7090    -0.0340     2.0230 ha         1 38Z       0.128500
     48 H4           7.3560    -1.4350     4.0490 h4         1 38Z       0.022600
     49 H5          10.0280    -4.3160     2.7000 h4         1 38Z       0.022600
     50 H6          10.4760    -3.0470     0.6060 ha         1 38Z       0.128500
     51 H7          11.4480    -1.0100    -0.4890 hn         1 38Z       0.374000
     52 H8           9.1450     1.9840    -3.6120 ha         1 38Z       0.129000
     53 H9           6.7160     2.4880    -3.3860 ha         1 38Z       0.107000
     54 H10          2.8440     2.3760    -2.1070 hc         1 38Z       0.059700
     55 H11          2.5450     2.7120     0.9160 hc         1 38Z       0.058700
     56 H12          2.2430     3.9070    -0.3450 hc         1 38Z       0.058700
     57 H13          1.0950     0.8450    -2.2170 h1         1 38Z       0.046700
     58 H14          2.0930    -0.2650    -1.2610 h1         1 38Z       0.046700
     59 H16          0.1000     2.7980     0.8350 h1         1 38Z       0.046200
     60 H17          0.0800     2.8280    -0.9470 h1         1 38Z       0.046200
     61 H18         -1.1320     0.5080    -0.9690 h1         1 38Z       0.046200
     62 H19         -0.2740    -0.8740    -0.2910 h1         1 38Z       0.046200
     63 H20         -2.4680    -1.2440    -0.9180 h1         1 38Z       0.062950
     64 H21         -3.3420    -2.3300     0.1580 h1         1 38Z       0.062950
     65 H22         -4.3100     0.3970    -0.8670 h1         1 38Z       0.047950
     66 H23         -4.9300    -1.2010    -1.3230 h1         1 38Z       0.047950
     67 H24         -4.7460     1.1020     1.7700 h1         1 38Z       0.047950
     68 H25         -5.6040    -0.0980     2.7450 h1         1 38Z       0.047950
     69 H26         -3.7400    -1.6880     2.5660 h1         1 38Z       0.062950
     70 H27         -3.1410    -0.1400     3.1680 h1         1 38Z       0.062950
     71 H28         -6.7260     0.5110    -1.5080 ha         1 38Z       0.114500
     72 H29         -9.1340     0.6180    -1.9010 ha         1 38Z       0.132000
     73 H30         -9.8130    -1.3610     1.9110 ha         1 38Z       0.132000
     74 H31         -7.3920    -1.4660     2.2630 ha         1 38Z       0.114500
     75 H32        -13.9760    -1.1670     1.2630 h4         1 38Z       0.023100
     76 H33        -14.9420    -0.1290    -0.8440 ha         1 38Z       0.135000
     77 H34        -13.2980     0.7940    -2.5460 h4         1 38Z       0.023100
@<TRIPOS>BOND
     1     1     2 2   
     2     2     3 1   
     3     2    19 1   
     4     3     4 1   
     5     3    45 1   
     6     4     5 ar  
     7     4    18 ar  
     8     5     6 ar  
     9     5    46 1   
    10     6     7 2   
    11     6    16 ar  
    12     7     8 1   
    13     7    14 1   
    14     8     9 ar  
    15     8    13 ar  
    16     9    10 ar  
    17     9    47 1   
    18    10    11 ar  
    19    10    48 1   
    20    11    12 ar  
    21    12    13 ar  
    22    12    49 1   
    23    13    50 1   
    24    14    15 1   
    25    14    51 1   
    26    15    16 2   
    27    16    17 ar  
    28    17    18 ar  
    29    17    52 1   
    30    18    53 1   
    31    19    20 1   
    32    19    21 1   
    33    19    54 1   
    34    20    23 1   
    35    20    55 1   
    36    20    56 1   
    37    21    22 1   
    38    21    57 1   
    39    21    58 1   
    40    22    23 1   
    41    22    24 1   
    42    23    59 1   
    43    23    60 1   
    44    24    25 1   
    45    24    61 1   
    46    24    62 1   
    47    25    26 2   
    48    25    27 1   
    49    27    28 1   
    50    27    32 1   
    51    28    29 1   
    52    28    63 1   
    53    28    64 1   
    54    29    30 1   
    55    29    65 1   
    56    29    66 1   
    57    30    31 1   
    58    30    33 1   
    59    31    32 1   
    60    31    67 1   
    61    31    68 1   
    62    32    69 1   
    63    32    70 1   
    64    33    34 ar  
    65    33    38 ar  
    66    34    35 ar  
    67    34    71 1   
    68    35    36 ar  
    69    35    72 1   
    70    36    37 ar  
    71    36    39 1   
    72    37    38 ar  
    73    37    73 1   
    74    38    74 1   
    75    39    40 ar  
    76    39    44 ar  
    77    40    41 ar  
    78    41    42 ar  
    79    41    75 1   
    80    42    43 ar  
    81    42    76 1   
    82    43    44 ar  
    83    43    77 1   
@<TRIPOS>SUBSTRUCTURE
     1 38Z         1 TEMP              0 ****  ****    0 ROOT
