@<TRIPOS>MOLECULE
38Z
   77    83     1     0     0
SMALL
abcg2


@<TRIPOS>ATOM
      1 O1           4.0370    -0.3130    -0.6050 o          1 38Z      -0.565100
      2 C20          3.8960     0.6410    -1.3490 c          1 38Z       0.612100
      3 N5           4.9170     1.4500    -1.7370 ns         1 38Z      -0.148000
      4 C21          6.2610     1.4290    -1.3540 ca         1 38Z      -0.041000
      5 C26          6.8230     0.4900    -0.5220 ca         1 38Z      -0.096000
      6 C25          8.1990     0.6140    -0.2280 ca         1 38Z      -0.089000
      7 C27          9.1130    -0.1240     0.5350 cc         1 38Z      -0.065300
      8 C28          8.9760    -1.3190     1.3490 ca         1 38Z       0.012200
      9 C32          7.7700    -1.6340     1.9760 ca         1 38Z      -0.156000
     10 C31          7.6900    -2.7840     2.7430 ca         1 38Z       0.339400
     11 N6           8.7050    -3.6200     2.9290 nb         1 38Z      -0.660000
     12 C30          9.8550    -3.3180     2.3370 ca         1 38Z       0.339400
     13 C29         10.0420    -2.2000     1.5420 ca         1 38Z      -0.156000
     14 N7          10.2920     0.5060     0.3640 na         1 38Z       0.025500
     15 N8          10.2600     1.5700    -0.4080 nc         1 38Z      -0.264400
     16 C24          8.9830     1.6540    -0.7910 ca         1 38Z      -0.095000
     17 C23          8.3870     2.6070    -1.6460 ca         1 38Z      -0.049000
     18 C22          7.0570     2.4840    -1.9050 ca         1 38Z      -0.141000
     19 C19          2.5560     1.0800    -1.9010 c5         1 38Z      -0.153700
     20 C            2.0050     2.2710    -1.0680 c5         1 38Z      -0.074400
     21 C18          1.4620     0.0150    -1.7940 c5         1 38Z       0.172800
     22 N            0.6610     0.4170    -0.6490 n3         1 38Z      -0.680600
     23 C1           0.5710     1.8620    -0.7620 c5         1 38Z       0.156800
     24 C2          -0.6000    -0.2680    -0.6050 c3         1 38Z       0.093800
     25 C3          -1.3010    -0.1250     0.7390 c          1 38Z       0.609100
     26 O           -0.7760     0.4650     1.6720 o          1 38Z      -0.577100
     27 N1          -2.5240    -0.6910     0.8400 n          1 38Z      -0.422800
     28 C7          -3.2050    -1.4390    -0.1960 c6         1 38Z       0.092500
     29 C6          -4.5380    -0.7950    -0.5430 c6         1 38Z       0.182300
     30 N2          -5.3500    -0.6450     0.6480 nh         1 38Z      -0.794400
     31 C5          -4.6600     0.0830     1.7060 c6         1 38Z       0.182300
     32 C4          -3.3270    -0.5630     2.0390 c6         1 38Z       0.092500
     33 C8          -6.7130    -0.4460     0.5000 ca         1 38Z       0.322000
     34 C13         -7.3140    -0.2670    -0.7550 ca         1 38Z      -0.185000
     35 C12         -8.6830    -0.1080    -0.8770 ca         1 38Z      -0.030500
     36 C11         -9.5180    -0.1090     0.2380 cp         1 38Z      -0.195500
     37 C10         -8.9220    -0.2820     1.4910 ca         1 38Z      -0.030500
     38 C9          -7.5600    -0.4480     1.6220 ca         1 38Z      -0.185000
     39 C14        -10.9720     0.0660     0.1050 cp         1 38Z       0.206500
     40 N4         -11.7000     0.0700     1.2210 nb         1 38Z      -0.185500
     41 C17        -13.0090     0.2250     1.0960 ca         1 38Z       0.117400
     42 C16        -13.6220     0.3800    -0.1360 ca         1 38Z      -0.231000
     43 C15        -12.7800     0.3660    -1.2350 ca         1 38Z       0.117400
     44 N3         -11.4700     0.2100    -1.1230 nb         1 38Z      -0.185500
     45 H1           4.6690     2.2010    -2.3620 hn         1 38Z       0.146000
     46 H2           6.2370    -0.3170    -0.1160 ha         1 38Z       0.153000
     47 H3           6.9080    -0.9860     1.9010 ha         1 38Z       0.128500
     48 H4           6.7570    -3.0340     3.2360 h4         1 38Z       0.022600
     49 H5          10.6780    -4.0050     2.4940 h4         1 38Z       0.022600
     50 H6          11.0050    -2.0400     1.0740 ha         1 38Z       0.128500
     51 H7          11.1640     0.2580     0.8090 hn         1 38Z       0.374000
     52 H8           8.9680     3.4080    -2.0830 ha         1 38Z       0.129000
     53 H9           6.5750     3.2050    -2.5550 ha         1 38Z       0.107000
     54 H10          2.6840     1.3790    -2.9430 hc         1 38Z       0.059700
     55 H11          2.5630     2.3930    -0.1380 hc         1 38Z       0.058700
     56 H12          2.0610     3.2140    -1.6090 hc         1 38Z       0.058700
     57 H13          0.8730     0.0230    -2.7250 h1         1 38Z       0.046700
     58 H14          1.8500    -0.9970    -1.6650 h1         1 38Z       0.046700
     59 H16          0.1950     2.3180     0.1520 h1         1 38Z       0.046200
     60 H17         -0.0980     2.1610    -1.5880 h1         1 38Z       0.046200
     61 H18         -1.2740     0.0690    -1.4120 h1         1 38Z       0.046200
     62 H19         -0.4250    -1.3330    -0.7860 h1         1 38Z       0.046200
     63 H20         -2.6050    -1.5160    -1.0980 h1         1 38Z       0.062950
     64 H21         -3.3790    -2.4590     0.1610 h1         1 38Z       0.062950
     65 H22         -4.3610     0.1700    -1.0420 h1         1 38Z       0.047950
     66 H23         -5.0440    -1.4480    -1.2540 h1         1 38Z       0.047950
     67 H24         -4.4890     1.1250     1.4010 h1         1 38Z       0.047950
     68 H25         -5.2640     0.1050     2.6090 h1         1 38Z       0.047950
     69 H26         -3.4940    -1.5550     2.4710 h1         1 38Z       0.062950
     70 H27         -2.8030     0.0410     2.7730 h1         1 38Z       0.062950
     71 H28         -6.7160    -0.2280    -1.6540 ha         1 38Z       0.114500
     72 H29         -9.1060     0.0360    -1.8620 ha         1 38Z       0.132000
     73 H30         -9.5400    -0.3000     2.3780 ha         1 38Z       0.132000
     74 H31         -7.1550    -0.6110     2.6120 ha         1 38Z       0.114500
     75 H32        -13.5900     0.2250     2.0110 h4         1 38Z       0.023100
     76 H33        -14.6900     0.5040    -0.2330 ha         1 38Z       0.135000
     77 H34        -13.1720     0.4820    -2.2390 h4         1 38Z       0.023100
@<TRIPOS>BOND
     1     1     2 2   
     2     2     3 1   
     3     2    19 1   
     4     3     4 1   
     5     3    45 1   
     6     4     5 ar  
     7     4    18 ar  
     8     5     6 ar  
     9     5    46 1   
    10     6     7 2   
    11     6    16 ar  
    12     7     8 1   
    13     7    14 1   
    14     8     9 ar  
    15     8    13 ar  
    16     9    10 ar  
    17     9    47 1   
    18    10    11 ar  
    19    10    48 1   
    20    11    12 ar  
    21    12    13 ar  
    22    12    49 1   
    23    13    50 1   
    24    14    15 1   
    25    14    51 1   
    26    15    16 2   
    27    16    17 ar  
    28    17    18 ar  
    29    17    52 1   
    30    18    53 1   
    31    19    20 1   
    32    19    21 1   
    33    19    54 1   
    34    20    23 1   
    35    20    55 1   
    36    20    56 1   
    37    21    22 1   
    38    21    57 1   
    39    21    58 1   
    40    22    23 1   
    41    22    24 1   
    42    23    59 1   
    43    23    60 1   
    44    24    25 1   
    45    24    61 1   
    46    24    62 1   
    47    25    26 2   
    48    25    27 1   
    49    27    28 1   
    50    27    32 1   
    51    28    29 1   
    52    28    63 1   
    53    28    64 1   
    54    29    30 1   
    55    29    65 1   
    56    29    66 1   
    57    30    31 1   
    58    30    33 1   
    59    31    32 1   
    60    31    67 1   
    61    31    68 1   
    62    32    69 1   
    63    32    70 1   
    64    33    34 ar  
    65    33    38 ar  
    66    34    35 ar  
    67    34    71 1   
    68    35    36 ar  
    69    35    72 1   
    70    36    37 ar  
    71    36    39 1   
    72    37    38 ar  
    73    37    73 1   
    74    38    74 1   
    75    39    40 ar  
    76    39    44 ar  
    77    40    41 ar  
    78    41    42 ar  
    79    41    75 1   
    80    42    43 ar  
    81    42    76 1   
    82    43    44 ar  
    83    43    77 1   
@<TRIPOS>SUBSTRUCTURE
     1 38Z         1 TEMP              0 ****  ****    0 ROOT
