@<TRIPOS>MOLECULE
391
   45    49     1     0     0
SMALL
abcg2


@<TRIPOS>ATOM
      1 C36         -1.3450    -1.9780    -1.0870 ca         1 391      -0.090000
      2 C35         -2.2410    -2.9650    -0.7740 ca         1 391       0.061100
      3 O39         -2.8400    -3.8510    -1.6040 os         1 391      -0.344100
      4 C38         -3.8230    -4.5170    -0.8230 c5         1 391       0.369600
      5 O37         -3.5200    -4.2490     0.5380 os         1 391      -0.340100
      6 C34         -2.6520    -3.2070     0.5290 ca         1 391       0.055100
      7 C33         -2.1840    -2.4660     1.5830 ca         1 391      -0.092000
      8 C32         -1.2550    -1.4580     1.2910 ca         1 391      -0.104000
      9 C31         -0.8560    -1.2320    -0.0100 ca         1 391       0.106100
     10 O28          0.0400    -0.2000    -0.2480 os         1 391      -0.354400
     11 C23          1.2910    -0.5230    -0.5870 ca         1 391       0.385300
     12 N22          1.6050    -1.7930    -0.6790 nb         1 391      -0.320000
     13 C24          2.2130     0.4930    -0.8270 ca         1 391      -0.272000
     14 C25          3.4890     0.0810    -1.1730 ca         1 391       0.177300
     15 C27          4.5810     1.0650    -1.4300 c3         1 391      -0.151400
     16 N26          3.8080    -1.2160    -1.2920 nb         1 391      -0.213000
     17 C21          2.8390    -2.0660    -1.0460 ca         1 391       0.387300
     18 O17          3.1630    -3.3620    -1.1910 os         1 391      -0.338400
     19 C14          2.1280    -4.2720    -1.0910 ca         1 391       0.114100
     20 C15          2.0040    -5.0280     0.0590 ca         1 391      -0.088500
     21 C16          0.9570    -5.9310     0.1710 ca         1 391      -0.106500
     22 C13          1.2310    -4.4120    -2.1370 ca         1 391      -0.088500
     23 C12          0.1700    -5.2900    -2.0130 ca         1 391      -0.106500
     24 C11          0.0290    -6.0460    -0.8550 ca         1 391       0.003800
     25 N3          -1.0650    -6.9250    -0.7200 na         1 391      -0.074300
     26 C4          -1.7820    -7.1710     0.4230 cc         1 391      -0.216000
     27 C5          -2.7380    -8.0740     0.0670 cd         1 391       0.222900
     28 NFE         -2.6230    -8.3890    -1.2600 nd         1 391      -0.673000
     29 C2          -1.6170    -7.6860    -1.7010 cc         1 391       0.397400
     30 H36         -1.0220    -1.7950    -2.1030 ha         1 391       0.144000
     31 H381        -3.7790    -5.5900    -1.0060 h2         1 391       0.073200
     32 H382        -4.8170    -4.1260    -1.0670 h2         1 391       0.073200
     33 H33         -2.5030    -2.6500     2.5990 ha         1 391       0.138000
     34 H32         -0.8510    -0.8520     2.0910 ha         1 391       0.134000
     35 H24          1.9500     1.5370    -0.7440 ha         1 391       0.152000
     36 H271         5.3650     0.9570    -0.6780 hc         1 391       0.061033
     37 H272         5.0390     0.8820    -2.4020 hc         1 391       0.061033
     38 H273         4.2170     2.0890    -1.4020 hc         1 391       0.061033
     39 H15          2.7140    -4.9160     0.8670 ha         1 391       0.133500
     40 H16          0.8700    -6.5370     1.0630 ha         1 391       0.131500
     41 H13          1.3320    -3.8130    -3.0330 ha         1 391       0.133500
     42 H12         -0.5610    -5.3580    -2.8060 ha         1 391       0.131500
     43 H4          -1.5710    -6.6760     1.3550 h4         1 391       0.164000
     44 H5          -3.5020    -8.5070     0.6930 h4         1 391       0.040100
     45 H2          -1.2250    -7.7000    -2.7070 h5         1 391       0.059100
@<TRIPOS>BOND
     1     1     2 ar  
     2     1     9 ar  
     3     1    30 1   
     4     2     3 1   
     5     2     6 ar  
     6     3     4 1   
     7     4     5 1   
     8     4    31 1   
     9     4    32 1   
    10     5     6 1   
    11     6     7 ar  
    12     7     8 ar  
    13     7    33 1   
    14     8     9 ar  
    15     8    34 1   
    16     9    10 1   
    17    10    11 1   
    18    11    12 ar  
    19    11    13 ar  
    20    12    17 ar  
    21    13    14 ar  
    22    13    35 1   
    23    14    15 1   
    24    14    16 ar  
    25    15    36 1   
    26    15    37 1   
    27    15    38 1   
    28    16    17 ar  
    29    17    18 1   
    30    18    19 1   
    31    19    20 ar  
    32    19    22 ar  
    33    20    21 ar  
    34    20    39 1   
    35    21    24 ar  
    36    21    40 1   
    37    22    23 ar  
    38    22    41 1   
    39    23    24 ar  
    40    23    42 1   
    41    24    25 1   
    42    25    26 1   
    43    25    29 1   
    44    26    27 2   
    45    26    43 1   
    46    27    28 1   
    47    27    44 1   
    48    28    29 2   
    49    29    45 1   
@<TRIPOS>SUBSTRUCTURE
     1 391         1 TEMP              0 ****  ****    0 ROOT
