@<TRIPOS>MOLECULE
391
   45    49     1     0     0
SMALL
No Charge or Current Charge


@<TRIPOS>ATOM
      1 C36         -1.3250    -1.8300    -0.8970 ca         1 391      -0.090000
      2 C35         -2.3400    -2.7600    -0.6400 ca         1 391       0.061100
      3 O39         -2.8330    -3.6650    -1.5240 os         1 391      -0.344100
      4 C38         -3.7570    -4.4510    -0.6910 c5         1 391       0.369600
      5 O37         -3.9220    -3.7850     0.6110 os         1 391      -0.340100
      6 C34         -2.9600    -2.8280     0.5760 ca         1 391       0.055100
      7 C33         -2.6180    -1.9680     1.6280 ca         1 391      -0.092000
      8 C32         -1.5870    -1.0280     1.4070 ca         1 391      -0.104000
      9 C31         -0.9320    -0.9690     0.1540 ca         1 391       0.106100
     10 O28          0.0980    -0.0690    -0.0220 os         1 391      -0.354400
     11 C23          1.3500    -0.4640    -0.4440 ca         1 391       0.385300
     12 N22          1.6710    -1.7680    -0.4810 nb         1 391      -0.320000
     13 C24          2.2780     0.5110    -0.8240 ca         1 391      -0.272000
     14 C25          3.5400     0.0750    -1.2560 ca         1 391       0.177300
     15 C27          4.6150     1.0550    -1.6830 c3         1 391      -0.151400
     16 N26          3.8490    -1.2360    -1.3100 nb         1 391      -0.213000
     17 C21          2.8960    -2.1110    -0.9270 ca         1 391       0.387300
     18 O17          3.2000    -3.4540    -1.0050 os         1 391      -0.338400
     19 C14          2.2080    -4.4110    -1.0090 ca         1 391       0.114100
     20 C15          2.1400    -5.3460     0.0350 ca         1 391      -0.088500
     21 C16          1.0790    -6.2680     0.0840 ca         1 391      -0.106500
     22 C13          1.2330    -4.4170    -2.0230 ca         1 391      -0.088500
     23 C12          0.1720    -5.3360    -1.9740 ca         1 391      -0.106500
     24 C11          0.0790    -6.2640    -0.9140 ca         1 391       0.003800
     25 N3          -0.9960    -7.1550    -0.8430 na         1 391      -0.074300
     26 C4          -1.6080    -7.5570     0.3180 cc         1 391      -0.216000
     27 C5          -2.6230    -8.3770    -0.1130 cd         1 391       0.222900
     28 NFE         -2.6380    -8.4690    -1.4980 nd         1 391      -0.673000
     29 C2          -1.6340    -7.7120    -1.9280 cc         1 391       0.397400
     30 H36         -0.8460    -1.7890    -1.8710 ha         1 391       0.144000
     31 H381        -3.3270    -5.4460    -0.5280 h2         1 391       0.073200
     32 H382        -4.7290    -4.5400    -1.1920 h2         1 391       0.073200
     33 H33         -3.1280    -2.0290     2.5870 ha         1 391       0.138000
     34 H32         -1.2840    -0.3560     2.2050 ha         1 391       0.134000
     35 H24          2.0220     1.5650    -0.7850 ha         1 391       0.152000
     36 H271         5.3200     1.2410    -0.8650 hc         1 391       0.061033
     37 H272         5.1860     0.6740    -2.5390 hc         1 391       0.061033
     38 H273         4.1830     2.0190    -1.9780 hc         1 391       0.061033
     39 H15          2.8950    -5.3400     0.8170 ha         1 391       0.133500
     40 H16          1.0350    -6.9820     0.9030 ha         1 391       0.131500
     41 H13          1.2850    -3.6910    -2.8310 ha         1 391       0.133500
     42 H12         -0.5900    -5.3020    -2.7500 ha         1 391       0.131500
     43 H4          -1.3100    -7.2460     1.3110 h4         1 391       0.164000
     44 H5          -3.3490    -8.9010     0.4960 h4         1 391       0.040100
     45 H2          -1.3320    -7.5420    -2.9540 h5         1 391       0.059100
@<TRIPOS>BOND
     1     1     2 ar  
     2     1     9 ar  
     3     1    30 1   
     4     2     3 1   
     5     2     6 ar  
     6     3     4 1   
     7     4     5 1   
     8     4    31 1   
     9     4    32 1   
    10     5     6 1   
    11     6     7 ar  
    12     7     8 ar  
    13     7    33 1   
    14     8     9 ar  
    15     8    34 1   
    16     9    10 1   
    17    10    11 1   
    18    11    12 ar  
    19    11    13 ar  
    20    12    17 ar  
    21    13    14 ar  
    22    13    35 1   
    23    14    15 1   
    24    14    16 ar  
    25    15    36 1   
    26    15    37 1   
    27    15    38 1   
    28    16    17 ar  
    29    17    18 1   
    30    18    19 1   
    31    19    20 ar  
    32    19    22 ar  
    33    20    21 ar  
    34    20    39 1   
    35    21    24 ar  
    36    21    40 1   
    37    22    23 ar  
    38    22    41 1   
    39    23    24 ar  
    40    23    42 1   
    41    24    25 1   
    42    25    26 1   
    43    25    29 1   
    44    26    27 2   
    45    26    43 1   
    46    27    28 1   
    47    27    44 1   
    48    28    29 2   
    49    29    45 1   
@<TRIPOS>SUBSTRUCTURE
     1 391         1 TEMP              0 ****  ****    0 ROOT
