@<TRIPOS>MOLECULE
392
   43    44     1     0     0
SMALL
abcg2


@<TRIPOS>ATOM
      1 CAJ          4.3740    -0.9440     0.2470 ca         1 392      -0.093000
      2 CAT          5.5510    -1.3440     0.8550 ca         1 392       0.123000
      3 CLC          5.5400    -2.7380     1.8830 cl         1 392      -0.195500
      4 CAI          6.7450    -0.6630     0.6700 ca         1 392      -0.097000
      5 CAU          6.7240     0.4480    -0.1570 ca         1 392       0.123000
      6 CLD          8.1930     1.3320    -0.4070 cl         1 392      -0.195500
      7 CAK          5.5620     0.8760    -0.7800 ca         1 392      -0.093000
      8 CAW          4.3790     0.1740    -0.5830 ca         1 392      -0.071300
      9 CAO          3.1200     0.5980    -1.2940 c3         1 392       0.205100
     10 NAP          1.9480     0.4240    -0.4650 n7         1 392      -0.866400
     11 CAM          0.7080     0.6600    -1.1790 c3         1 392       0.164800
     12 CAL         -0.4880     0.4530    -0.2640 c3         1 392      -0.100400
     13 CAN         -1.8020     0.6630    -0.9990 c3         1 392       0.118000
     14 NAQ         -2.9150     0.4480    -0.1000 ns         1 392      -0.524900
     15 CAS         -4.1900     0.3660    -0.5420 c          1 392       0.654100
     16 OAA         -4.4900     0.4110    -1.7270 o          1 392      -0.627100
     17 NAR         -5.1190     0.2260     0.4630 ns         1 392      -0.163000
     18 CAX         -6.4870     0.0340     0.2230 ca         1 392      -0.051000
     19 CAH         -7.2220     0.9080    -0.5700 ca         1 392      -0.070000
     20 CAF         -8.5780     0.7070    -0.7850 ca         1 392      -0.129000
     21 CAE         -9.2190    -0.3660    -0.1820 ca         1 392      -0.083000
     22 CAG         -8.5030    -1.2380     0.6260 ca         1 392      -0.189000
     23 CAV         -7.1390    -1.0530     0.8210 ca         1 392       0.100100
     24 OAB         -6.3890    -1.8770     1.5810 oh         1 392      -0.546100
     25 H1           3.4530    -1.4850     0.4130 ha         1 392       0.140000
     26 H2           7.6550    -0.9840     1.1550 ha         1 392       0.145000
     27 H3           5.5780     1.7520    -1.4150 ha         1 392       0.140000
     28 H4           3.2450     1.6240    -1.6700 h1         1 392       0.042700
     29 H5           3.0020    -0.0330    -2.1820 h1         1 392       0.042700
     30 H6           2.0050     1.0620     0.3210 hn         1 392       0.412000
     31 H8           0.6610     1.6650    -1.6250 h1         1 392       0.035200
     32 H9           0.6560    -0.0480    -2.0110 h1         1 392       0.035200
     33 H10         -0.4570    -0.5570     0.1530 hc         1 392       0.051700
     34 H11         -0.4270     1.1510     0.5780 hc         1 392       0.051700
     35 H12         -1.8310     1.6710    -1.4290 h1         1 392       0.051200
     36 H13         -1.8710    -0.0380    -1.8330 h1         1 392       0.051200
     37 H14         -2.7430     0.5690     0.8850 hn         1 392       0.308500
     38 H15         -4.7810    -0.0440     1.3740 hn         1 392       0.153000
     39 H16         -6.7270     1.7610    -1.0130 ha         1 392       0.133000
     40 H17         -9.1320     1.3960    -1.4090 ha         1 392       0.119000
     41 H18        -10.2770    -0.5290    -0.3340 ha         1 392       0.114000
     42 H19         -9.0040    -2.0770     1.0950 ha         1 392       0.112000
     43 H20         -6.9370    -2.5670     1.9710 ho         1 392       0.468000
@<TRIPOS>BOND
     1     1     2 ar  
     2     1     8 ar  
     3     1    25 1   
     4     2     3 1   
     5     2     4 ar  
     6     4     5 ar  
     7     4    26 1   
     8     5     6 1   
     9     5     7 ar  
    10     7     8 ar  
    11     7    27 1   
    12     8     9 1   
    13     9    10 1   
    14     9    28 1   
    15     9    29 1   
    16    10    11 1   
    17    10    30 1   
    18    11    12 1   
    19    11    31 1   
    20    11    32 1   
    21    12    13 1   
    22    12    33 1   
    23    12    34 1   
    24    13    14 1   
    25    13    35 1   
    26    13    36 1   
    27    14    15 1   
    28    14    37 1   
    29    15    16 2   
    30    15    17 1   
    31    17    18 1   
    32    17    38 1   
    33    18    19 ar  
    34    18    23 ar  
    35    19    20 ar  
    36    19    39 1   
    37    20    21 ar  
    38    20    40 1   
    39    21    22 ar  
    40    21    41 1   
    41    22    23 ar  
    42    22    42 1   
    43    23    24 1   
    44    24    43 1   
@<TRIPOS>SUBSTRUCTURE
     1 392         1 TEMP              0 ****  ****    0 ROOT
