@<TRIPOS>MOLECULE
392
   43    44     1     0     0
SMALL
No Charge or Current Charge


@<TRIPOS>ATOM
      1 CAJ          4.8770    -1.2000    -0.4840 ca         1 392      -0.093000
      2 CAT          5.9830    -1.5530     0.3080 ca         1 392       0.123000
      3 ClC          6.4680    -3.2390     0.4340 cl         1 392      -0.195500
      4 CAI          6.7010    -0.5650     0.9980 ca         1 392      -0.097000
      5 CAU          6.3100     0.7800     0.8960 ca         1 392       0.123000
      6 ClD          7.2070     2.0210     1.7610 cl         1 392      -0.195500
      7 CAK          5.2040     1.1370     0.1060 ca         1 392      -0.093000
      8 CAW          4.4800     0.1490    -0.5900 ca         1 392      -0.071300
      9 CAO          3.2810     0.5280    -1.4480 c3         1 392       0.205100
     10 NAP          2.0260     0.2360    -0.7320 n7         1 392      -0.866400
     11 CAM          0.7940     0.5810    -1.4620 c3         1 392       0.164800
     12 CAL         -0.4390     0.2110    -0.6170 c3         1 392      -0.100400
     13 CAN         -1.7620     0.5360    -1.3320 c3         1 392       0.118000
     14 NAQ         -2.9210     0.1770    -0.5150 ns         1 392      -0.524900
     15 CAS         -4.2260     0.3770    -0.8980 c          1 392       0.654100
     16 OAA         -4.5180     0.8810    -1.9730 o          1 392      -0.627100
     17 NAR         -5.1280    -0.0520     0.0610 ns         1 392      -0.163000
     18 CAX         -6.5530    -0.0520     0.1130 ca         1 392      -0.051000
     19 CAH         -7.3650     0.4470    -0.9320 ca         1 392      -0.070000
     20 CAF         -8.7670     0.4180    -0.8180 ca         1 392      -0.129000
     21 CAE         -9.3730    -0.1060     0.3340 ca         1 392      -0.083000
     22 CAG         -8.5760    -0.6040     1.3770 ca         1 392      -0.189000
     23 CAV         -7.1760    -0.5780     1.2690 ca         1 392       0.100100
     24 OAB         -6.4200    -1.0680     2.2970 oh         1 392      -0.546100
     25 H1           4.3240    -1.9730    -1.0110 ha         1 392       0.140000
     26 H2           7.5560    -0.8390     1.6090 ha         1 392       0.145000
     27 H3           4.9110     2.1820     0.0370 ha         1 392       0.140000
     28 H4           3.3400     1.5960    -1.7020 h1         1 392       0.042700
     29 H5           3.3250    -0.0340    -2.3910 h1         1 392       0.042700
     30 H6           2.0370     0.7650     0.1480 hn         1 392       0.412000
     31 H8           0.7670     1.6560    -1.6860 h1         1 392       0.035200
     32 H9           0.7500     0.0370    -2.4160 h1         1 392       0.035200
     33 H10         -0.4090    -0.8610    -0.3850 hc         1 392       0.051700
     34 H11         -0.4030     0.7530     0.3360 hc         1 392       0.051700
     35 H12         -1.8050     1.6110    -1.5560 h1         1 392       0.051200
     36 H13         -1.8130    -0.0160    -2.2810 h1         1 392       0.051200
     37 H14         -2.7630    -0.2470     0.3900 hn         1 392       0.308500
     38 H15         -4.7020    -0.4440     0.8890 hn         1 392       0.153000
     39 H16         -6.9340     0.8600    -1.8380 ha         1 392       0.133000
     40 H17         -9.3830     0.8040    -1.6270 ha         1 392       0.119000
     41 H18        -10.4580    -0.1260     0.4170 ha         1 392       0.114000
     42 H19         -9.0540    -1.0080     2.2660 ha         1 392       0.112000
     43 H20         -7.0230    -1.3850     3.0030 ho         1 392       0.468000
@<TRIPOS>BOND
     1     1     2 ar  
     2     1     8 ar  
     3     1    25 1   
     4     2     3 1   
     5     2     4 ar  
     6     4     5 ar  
     7     4    26 1   
     8     5     6 1   
     9     5     7 ar  
    10     7     8 ar  
    11     7    27 1   
    12     8     9 1   
    13     9    10 1   
    14     9    28 1   
    15     9    29 1   
    16    10    11 1   
    17    10    30 1   
    18    11    12 1   
    19    11    31 1   
    20    11    32 1   
    21    12    13 1   
    22    12    33 1   
    23    12    34 1   
    24    13    14 1   
    25    13    35 1   
    26    13    36 1   
    27    14    15 1   
    28    14    37 1   
    29    15    16 2   
    30    15    17 1   
    31    17    18 1   
    32    17    38 1   
    33    18    19 ar  
    34    18    23 ar  
    35    19    20 ar  
    36    19    39 1   
    37    20    21 ar  
    38    20    40 1   
    39    21    22 ar  
    40    21    41 1   
    41    22    23 ar  
    42    22    42 1   
    43    23    24 1   
    44    24    43 1   
@<TRIPOS>SUBSTRUCTURE
     1 392         1 TEMP              0 ****  ****    0 ROOT
