@<TRIPOS>MOLECULE
393
   37    38     1     0     0
SMALL
bcc


@<TRIPOS>ATOM
      1 C1           6.0790    -2.3850    -4.4110 ca         1 393      -0.150200
      2 N2           7.1980    -3.3120    -4.4190 no         1 393       0.337200
      3 O3           8.3130    -2.8530    -4.3250 o          1 393      -0.213500
      4 O4           6.9610    -4.4900    -4.5350 o          1 393      -0.213500
      5 C5           4.8100    -2.8760    -4.1540 ca         1 393      -0.029000
      6 C6           3.7370    -1.9970    -4.1060 ca         1 393      -0.134300
      7 C7           2.3850    -2.4980    -3.6600 c3         1 393       0.154300
      8 N8           2.2540    -2.3950    -2.2190 ns         1 393      -0.548900
      9 C9           1.8410    -1.2650    -1.6230 c          1 393       0.683700
     10 C10          1.9420    -1.1780    -0.1260 ca         1 393      -0.178600
     11 C11          1.1400    -0.2210     0.4990 ca         1 393      -0.066000
     12 C12          1.1600    -0.0270     1.8670 ca         1 393      -0.169000
     13 C13          2.0160    -0.8020     2.6340 ca         1 393       0.054400
     14 CL1          2.0630    -0.5790     4.3480 cl         1 393      -0.134400
     15 C15          2.8340    -1.7540     2.0540 ca         1 393      -0.165000
     16 C16          2.7900    -1.9480     0.6780 ca         1 393       0.173100
     17 O17          3.5660    -2.9250     0.1490 os         1 393      -0.332900
     18 C18          4.8710    -2.5260    -0.2790 c3         1 393      -0.016600
     19 C19          5.5010    -3.6380    -1.1340 c          1 393       0.931600
     20 O20          6.6960    -3.4470    -1.4180 o          1 393      -0.815300
     21 O21          4.7660    -4.5840    -1.4660 o          1 393      -0.815300
     22 O22          1.3660    -0.3250    -2.2490 o          1 393      -0.653100
     23 C23          3.9540    -0.6480    -4.3770 ca         1 393      -0.081000
     24 C24          5.2290    -0.1780    -4.6590 ca         1 393      -0.161000
     25 C25          6.3120    -1.0420    -4.6610 ca         1 393      -0.070000
     26 H5           4.6590    -3.9240    -3.9440 ha         1 393       0.197000
     27 H71          1.5830    -1.9400    -4.1390 h1         1 393       0.059700
     28 H72          2.2620    -3.5460    -3.9320 h1         1 393       0.059700
     29 HN8          2.7200    -3.1050    -1.6710 hn         1 393       0.375500
     30 H11          0.4800     0.3860    -0.1050 ha         1 393       0.149000
     31 H12          0.5200     0.7140     2.3260 ha         1 393       0.138000
     32 H15          3.4990    -2.3590     2.6570 ha         1 393       0.161000
     33 H181         4.8160    -1.6070    -0.8760 h1         1 393       0.023200
     34 H182         5.4970    -2.3090     0.5930 h1         1 393       0.023200
     35 H23          3.1210     0.0430    -4.3570 ha         1 393       0.145000
     36 H24          5.3850     0.8710    -4.8710 ha         1 393       0.128000
     37 H25          7.3050    -0.6710    -4.8660 ha         1 393       0.154000
@<TRIPOS>BOND
     1     1     2 1   
     2     1     5 ar  
     3     1    25 ar  
     4     2     3 1   
     5     2     4 1   
     6     5     6 ar  
     7     5    26 1   
     8     6     7 1   
     9     6    23 ar  
    10     7     8 1   
    11     7    27 1   
    12     7    28 1   
    13     8     9 1   
    14     8    29 1   
    15     9    10 1   
    16     9    22 2   
    17    10    11 ar  
    18    10    16 ar  
    19    11    12 ar  
    20    11    30 1   
    21    12    13 ar  
    22    12    31 1   
    23    13    14 1   
    24    13    15 ar  
    25    15    16 ar  
    26    15    32 1   
    27    16    17 1   
    28    17    18 1   
    29    18    19 1   
    30    18    33 1   
    31    18    34 1   
    32    19    20 1   
    33    19    21 1   
    34    23    24 ar  
    35    23    35 1   
    36    24    25 ar  
    37    24    36 1   
    38    25    37 1   
@<TRIPOS>SUBSTRUCTURE
     1 393         1 TEMP              0 ****  ****    0 ROOT
