@<TRIPOS>MOLECULE
393
   37    38     1     0     0
SMALL
No Charge or Current Charge


@<TRIPOS>ATOM
      1 C1           6.1510    -1.8980    -4.9800 ca         1 393      -0.150200
      2 N2           7.5180    -2.5140    -4.9560 no         1 393       0.717200
      3 O3           8.4420    -1.9130    -5.5230 o          1 393      -0.403500
      4 O4           7.6620    -3.6000    -4.3780 o          1 393      -0.403500
      5 C5           5.0700    -2.5290    -4.3180 ca         1 393      -0.011000
      6 C6           3.7830    -1.9530    -4.3420 ca         1 393      -0.134300
      7 C7           2.6270    -2.6340    -3.6250 c3         1 393       0.154300
      8 N8           2.6070    -2.2810    -2.2080 ns         1 393      -0.481900
      9 C9           1.8780    -1.2600    -1.6480 c          1 393       0.616700
     10 C10          2.0270    -1.0090    -0.1530 ca         1 393      -0.178600
     11 C11          1.2550     0.0330     0.4180 ca         1 393      -0.048000
     12 C12          1.3360     0.3300     1.7870 ca         1 393      -0.151000
     13 C13          2.1900    -0.4080     2.6120 ca         1 393       0.146000
     14 Cl1          2.2900    -0.0350     4.3280 cl         1 393      -0.226000
     15 C15          2.9650    -1.4420     2.0760 ca         1 393      -0.147000
     16 C16          2.8940    -1.7520     0.6990 ca         1 393       0.173100
     17 O17          3.6610    -2.7730     0.1730 os         1 393      -0.356100
     18 C18          4.5790    -3.5770     0.9560 c3         1 393       0.006600
     19 C19          5.3100    -4.6550     0.1010 c          1 393       0.721000
     20 O20          6.1090    -5.3860     0.6710 o          1 393      -0.710000
     21 O21          5.0620    -4.7370    -1.0960 o          1 393      -0.710000
     22 O22          1.1330    -0.5780    -2.3400 o          1 393      -0.653100
     23 C23          3.5740    -0.7400    -5.0230 ca         1 393      -0.063000
     24 C24          4.6410    -0.1080    -5.6810 ca         1 393      -0.143000
     25 C25          5.9240    -0.6800    -5.6630 ca         1 393      -0.052000
     26 H5           5.2220    -3.4640    -3.7790 ha         1 393       0.179000
     27 H71          1.6740    -2.3560    -4.0940 h1         1 393       0.059700
     28 H72          2.7310    -3.7240    -3.7110 h1         1 393       0.059700
     29 HN8          3.2060    -2.7960    -1.5710 hn         1 393       0.375500
     30 H11          0.5830     0.6240    -0.2010 ha         1 393       0.131000
     31 H12          0.7360     1.1330     2.2060 ha         1 393       0.120000
     32 H15          3.6160    -1.9930     2.7450 ha         1 393       0.143000
     33 H181         5.3460    -2.9390     1.4140 h1         1 393       0.023200
     34 H182         4.0390    -4.0980     1.7560 h1         1 393       0.023200
     35 H23          2.5850    -0.2850    -5.0390 ha         1 393       0.127000
     36 H24          4.4730     0.8290    -6.2060 ha         1 393       0.110000
     37 H25          6.7340    -0.1710    -6.1820 ha         1 393       0.136000
@<TRIPOS>BOND
     1     1     2 1   
     2     1     5 ar  
     3     1    25 ar  
     4     2     3 1   
     5     2     4 1   
     6     5     6 ar  
     7     5    26 1   
     8     6     7 1   
     9     6    23 ar  
    10     7     8 1   
    11     7    27 1   
    12     7    28 1   
    13     8     9 1   
    14     8    29 1   
    15     9    10 1   
    16     9    22 2   
    17    10    11 ar  
    18    10    16 ar  
    19    11    12 ar  
    20    11    30 1   
    21    12    13 ar  
    22    12    31 1   
    23    13    14 1   
    24    13    15 ar  
    25    15    16 ar  
    26    15    32 1   
    27    16    17 1   
    28    17    18 1   
    29    18    19 1   
    30    18    33 1   
    31    18    34 1   
    32    19    20 1   
    33    19    21 1   
    34    23    24 ar  
    35    23    35 1   
    36    24    25 ar  
    37    24    36 1   
    38    25    37 1   
@<TRIPOS>SUBSTRUCTURE
     1 393         1 TEMP              0 ****  ****    0 ROOT
