@<TRIPOS>MOLECULE
394
   54    56     1     0     0
SMALL
No Charge or Current Charge


@<TRIPOS>ATOM
      1 C1          -0.8050    -0.5030     2.6040 ca         1 394       0.083000
      2 C2          -1.5050    -0.1500     3.7680 ca         1 394      -0.098000
      3 C3          -0.8300     0.4220     4.8710 ca         1 394      -0.124600
      4 C4           0.5650     0.6280     4.7660 ca         1 394      -0.083000
      5 C5           1.2660     0.2740     3.5980 ca         1 394      -0.132000
      6 C6           0.5850    -0.2960     2.5010 ca         1 394      -0.108000
      7 C7          -1.5840     0.8050     6.1340 c          1 394       0.714600
      8 C8           0.7220    -1.1690    -2.0980 ca         1 394      -0.106000
      9 C9           1.8430    -0.4790    -1.6050 ca         1 394      -0.105300
     10 C10          2.0660     0.8430    -2.0190 ca         1 394      -0.079000
     11 C11          1.1960     1.4500    -2.9340 ca         1 394      -0.113000
     12 C12          0.0780     0.7620    -3.4560 ca         1 394      -0.054300
     13 C13         -0.8440     1.4890    -4.4730 c6         1 394       0.000300
     14 C14         -1.8150     0.5020    -5.1800 c6         1 394      -0.065400
     15 C15         -2.4720    -0.4670    -4.1830 c6         1 394      -0.067400
     16 C16         -1.4220    -1.3740    -3.4790 c6         1 394       0.001300
     17 C17         -0.1870    -0.5630    -2.9980 ca         1 394      -0.056300
     18 C18         -2.1420    -2.0820    -2.2850 c3         1 394      -0.082600
     19 C19         -0.9310    -2.4950    -4.4480 c3         1 394      -0.082600
     20 C20         -0.0140     2.2080    -5.5860 c3         1 394      -0.081600
     21 C21         -1.6430     2.5940    -3.7140 c3         1 394      -0.081600
     22 C22          2.7720    -1.1490    -0.5900 c3         1 394       0.141600
     23 C23          2.5430    -0.5730     0.8420 c          1 394       0.565100
     24 N6           1.2290    -0.6780     1.2890 ns         1 394      -0.110000
     25 F1          -1.4830    -1.0480     1.5690 f          1 394      -0.217000
     26 O22          4.1530    -1.0230    -1.0110 oh         1 394      -0.657000
     27 O23          3.4640    -0.0740     1.4870 o          1 394      -0.608100
     28 O71         -0.9590     1.2980     7.0630 o          1 394      -0.714000
     29 O72         -2.7910     0.6060     6.1780 o          1 394      -0.714000
     30 H2          -2.5780    -0.3250     3.8090 ha         1 394       0.147000
     31 H4           1.1170     1.0650     5.5960 ha         1 394       0.136000
     32 H5           2.3360     0.4510     3.5710 ha         1 394       0.127000
     33 H8           0.5590    -2.1910    -1.7700 ha         1 394       0.109000
     34 H10          2.9160     1.4030    -1.6350 ha         1 394       0.124000
     35 H11          1.3970     2.4750    -3.2290 ha         1 394       0.108000
     36 H141        -2.5950     1.0580    -5.7180 hc         1 394       0.038200
     37 H142        -1.2780    -0.0710    -5.9480 hc         1 394       0.038200
     38 H151        -3.0380     0.1040    -3.4350 hc         1 394       0.043200
     39 H152        -3.2150    -1.0840    -4.7060 hc         1 394       0.043200
     40 H181        -1.5330    -2.8720    -1.8300 hc         1 394       0.035867
     41 H182        -2.3950    -1.3640    -1.4950 hc         1 394       0.035867
     42 H183        -3.0760    -2.5560    -2.6090 hc         1 394       0.035867
     43 H191        -0.2670    -3.2040    -3.9390 hc         1 394       0.035867
     44 H192        -1.7710    -3.0710    -4.8560 hc         1 394       0.035867
     45 H193        -0.3690    -2.0830    -5.2930 hc         1 394       0.035867
     46 H201         0.5830     3.0420    -5.2000 hc         1 394       0.034700
     47 H202         0.6740     1.5090    -6.0790 hc         1 394       0.034700
     48 H203        -0.6680     2.6240    -6.3620 hc         1 394       0.034700
     49 H211        -0.9760     3.3580    -3.2950 hc         1 394       0.034700
     50 H212        -2.3500     3.1080    -4.3770 hc         1 394       0.034700
     51 H213        -2.2160     2.1790    -2.8770 hc         1 394       0.034700
     52 H22          2.5080    -2.2140    -0.5290 h1         1 394       0.061700
     53 HN6          0.6000    -1.0980     0.6160 hn         1 394       0.161000
     54 HO22         4.6340    -0.6400    -0.2400 ho         1 394       0.476000
@<TRIPOS>BOND
     1     1     2 ar  
     2     1     6 ar  
     3     1    25 1   
     4     2     3 ar  
     5     2    30 1   
     6     3     4 ar  
     7     3     7 1   
     8     4     5 ar  
     9     4    31 1   
    10     5     6 ar  
    11     5    32 1   
    12     6    24 1   
    13     7    28 1   
    14     7    29 1   
    15     8     9 ar  
    16     8    17 ar  
    17     8    33 1   
    18     9    10 ar  
    19     9    22 1   
    20    10    11 ar  
    21    10    34 1   
    22    11    12 ar  
    23    11    35 1   
    24    12    13 1   
    25    12    17 ar  
    26    13    14 1   
    27    13    20 1   
    28    13    21 1   
    29    14    15 1   
    30    14    36 1   
    31    14    37 1   
    32    15    16 1   
    33    15    38 1   
    34    15    39 1   
    35    16    17 1   
    36    16    18 1   
    37    16    19 1   
    38    18    40 1   
    39    18    41 1   
    40    18    42 1   
    41    19    43 1   
    42    19    44 1   
    43    19    45 1   
    44    20    46 1   
    45    20    47 1   
    46    20    48 1   
    47    21    49 1   
    48    21    50 1   
    49    21    51 1   
    50    22    23 1   
    51    22    26 1   
    52    22    52 1   
    53    23    24 1   
    54    23    27 2   
    55    24    53 1   
    56    26    54 1   
@<TRIPOS>SUBSTRUCTURE
     1 394         1 TEMP              0 ****  ****    0 ROOT
