@<TRIPOS>MOLECULE
394
   54    56     1     0     0
SMALL
bcc


@<TRIPOS>ATOM
      1 C1          -0.7940    -0.5580     2.5090 ca         1 394       0.047900
      2 C2          -1.5040    -0.1980     3.6270 ca         1 394      -0.116000
      3 C3          -0.8530     0.4500     4.6750 ca         1 394      -0.124600
      4 C4           0.5050     0.7080     4.5420 ca         1 394      -0.101000
      5 C5           1.2150     0.3400     3.4080 ca         1 394      -0.150000
      6 C6           0.5700    -0.3090     2.3560 ca         1 394      -0.015400
      7 C7          -1.6200     0.8570     5.9270 c          1 394       0.925200
      8 C8           0.7510    -1.1760    -2.1180 ca         1 394      -0.124000
      9 C9           1.8690    -0.5210    -1.6340 ca         1 394      -0.105300
     10 C10          2.1130     0.7830    -2.0540 ca         1 394      -0.097000
     11 C11          1.2360     1.3850    -2.9330 ca         1 394      -0.131000
     12 C12          0.0940     0.7360    -3.4200 ca         1 394      -0.054300
     13 C13         -0.8330     1.4950    -4.3620 c6         1 394       0.000300
     14 C14         -1.7940     0.5230    -5.0520 c6         1 394      -0.065400
     15 C15         -2.4210    -0.4520    -4.0760 c6         1 394      -0.067400
     16 C16         -1.3870    -1.3690    -3.4170 c6         1 394       0.001300
     17 C17         -0.1650    -0.5680    -2.9850 ca         1 394      -0.056300
     18 C18         -2.0580    -2.0300    -2.2050 c3         1 394      -0.082600
     19 C19         -0.9510    -2.4650    -4.4000 c3         1 394      -0.082600
     20 C20         -0.0400     2.2260    -5.4520 c3         1 394      -0.081600
     21 C21         -1.6190     2.5330    -3.5480 c3         1 394      -0.081600
     22 C22          2.7630    -1.1840    -0.6140 c3         1 394       0.118400
     23 C23          2.4570    -0.6210     0.7850 c          1 394       0.632100
     24 N6           1.1670    -0.7220     1.1640 ns         1 394      -0.436100
     25 F1          -1.4330    -1.1830     1.4960 f          1 394      -0.181900
     26 O22          4.1120    -0.9870    -0.8990 oh         1 394      -0.594800
     27 O23          3.3540    -0.1390     1.4530 o          1 394      -0.608100
     28 O71         -0.9620     1.4220     6.8200 o          1 394      -0.819300
     29 O72         -2.8360     0.5880     5.9460 o          1 394      -0.819300
     30 H2          -2.5610    -0.4200     3.6860 ha         1 394       0.165000
     31 H4           1.0290     1.2120     5.3430 ha         1 394       0.154000
     32 H5           2.2680     0.5630     3.3470 ha         1 394       0.145000
     33 H8           0.5820    -2.2010    -1.8060 ha         1 394       0.127000
     34 H10          2.9770     1.3290    -1.6960 ha         1 394       0.142000
     35 H11          1.4440     2.4000    -3.2470 ha         1 394       0.126000
     36 H141        -2.5680     1.0950    -5.5720 hc         1 394       0.038200
     37 H142        -1.2530    -0.0290    -5.8280 hc         1 394       0.038200
     38 H151        -2.9630     0.0990    -3.3010 hc         1 394       0.043200
     39 H152        -3.1680    -1.0710    -4.5800 hc         1 394       0.043200
     40 H181        -1.4460    -2.8140    -1.7580 hc         1 394       0.035867
     41 H182        -2.2800    -1.2940    -1.4300 hc         1 394       0.035867
     42 H183        -2.9990    -2.4900    -2.5110 hc         1 394       0.035867
     43 H191        -0.2180    -3.1350    -3.9470 hc         1 394       0.035867
     44 H192        -1.8120    -3.0690    -4.6990 hc         1 394       0.035867
     45 H193        -0.5030    -2.0520    -5.3040 hc         1 394       0.035867
     46 H201         0.6060     3.0080    -5.0510 hc         1 394       0.034700
     47 H202         0.5810     1.5330    -6.0230 hc         1 394       0.034700
     48 H203        -0.7310     2.7060    -6.1480 hc         1 394       0.034700
     49 H211        -0.9450     3.2290    -3.0440 hc         1 394       0.034700
     50 H212        -2.2710     3.1160    -4.2020 hc         1 394       0.034700
     51 H213        -2.2400     2.0680    -2.7810 hc         1 394       0.034700
     52 H22          2.5260    -2.2580    -0.5840 h1         1 394       0.061700
     53 HN6          0.5400    -1.1310     0.4860 hn         1 394       0.327500
     54 HO22         4.5200    -0.5970    -0.1110 ho         1 394       0.437000
@<TRIPOS>BOND
     1     1     2 ar  
     2     1     6 ar  
     3     1    25 1   
     4     2     3 ar  
     5     2    30 1   
     6     3     4 ar  
     7     3     7 1   
     8     4     5 ar  
     9     4    31 1   
    10     5     6 ar  
    11     5    32 1   
    12     6    24 1   
    13     7    28 1   
    14     7    29 1   
    15     8     9 ar  
    16     8    17 ar  
    17     8    33 1   
    18     9    10 ar  
    19     9    22 1   
    20    10    11 ar  
    21    10    34 1   
    22    11    12 ar  
    23    11    35 1   
    24    12    13 1   
    25    12    17 ar  
    26    13    14 1   
    27    13    20 1   
    28    13    21 1   
    29    14    15 1   
    30    14    36 1   
    31    14    37 1   
    32    15    16 1   
    33    15    38 1   
    34    15    39 1   
    35    16    17 1   
    36    16    18 1   
    37    16    19 1   
    38    18    40 1   
    39    18    41 1   
    40    18    42 1   
    41    19    43 1   
    42    19    44 1   
    43    19    45 1   
    44    20    46 1   
    45    20    47 1   
    46    20    48 1   
    47    21    49 1   
    48    21    50 1   
    49    21    51 1   
    50    22    23 1   
    51    22    26 1   
    52    22    52 1   
    53    23    24 1   
    54    23    27 2   
    55    24    53 1   
    56    26    54 1   
@<TRIPOS>SUBSTRUCTURE
     1 394         1 TEMP              0 ****  ****    0 ROOT
