@<TRIPOS>MOLECULE
395
   54    56     1     0     0
SMALL
No Charge or Current Charge


@<TRIPOS>ATOM
      1 C1           0.6820    -0.4900     2.8670 ca         1 395       0.083000
      2 C2           1.2870     0.0800     3.9980 ca         1 395      -0.098000
      3 C3           0.5990     1.0360     4.7790 ca         1 395      -0.123600
      4 C4          -0.7110     1.3990     4.3890 ca         1 395      -0.083000
      5 C5          -1.3150     0.8270     3.2550 ca         1 395      -0.131000
      6 C6          -0.6220    -0.1270     2.4790 ca         1 395      -0.108000
      7 C7           1.2500     1.6560     6.0050 c          1 395       0.714600
      8 C8          -1.1860     0.0130    -2.1470 ca         1 395      -0.081000
      9 C9          -1.4050    -1.2660    -1.6060 ca         1 395      -0.113300
     10 C10         -0.5510    -2.3160    -1.9730 ca         1 395      -0.101000
     11 C11          0.4910    -2.0910    -2.8810 ca         1 395      -0.109000
     12 C12          0.7120    -0.8150    -3.4480 ca         1 395      -0.055300
     13 C13          1.8800    -0.6340    -4.4560 c6         1 395       0.001300
     14 C14          1.7800     0.7170    -5.2180 c6         1 395      -0.065400
     15 C15          1.4610     1.8860    -4.2720 c6         1 395      -0.067400
     16 C16          0.0780     1.7120    -3.5830 c6         1 395       0.001300
     17 C17         -0.1220     0.2690    -3.0440 ca         1 395      -0.059300
     18 C18         -0.0090     2.7690    -2.4340 c3         1 395      -0.082100
     19 C19         -1.0770     2.0300    -4.5840 c3         1 395      -0.082100
     20 C20          1.8990    -1.7750    -5.5250 c3         1 395      -0.081100
     21 C21          3.2280    -0.7210    -3.6720 c3         1 395      -0.081100
     22 C22         -2.5370    -1.5060    -0.6060 c3         1 395       0.141600
     23 C23         -2.3860    -0.5970     0.6540 c          1 395       0.569100
     24 N6          -1.1720    -0.7470     1.3190 ns         1 395      -0.110000
     25 F1           1.3710    -1.4020     2.1440 f          1 395      -0.217000
     26 O22         -3.8160    -1.3150    -1.2580 oh         1 395      -0.652000
     27 O23         -3.2790     0.1770     0.9940 o          1 395      -0.607100
     28 O71          0.6170     2.4800     6.6510 o          1 395      -0.714000
     29 O72          2.3840     1.3090     6.3030 o          1 395      -0.714000
     30 H2           2.2960    -0.2270     4.2650 ha         1 395       0.147000
     31 H4          -1.2700     2.1320     4.9680 ha         1 395       0.136000
     32 H5          -2.3230     1.1390     3.0010 ha         1 395       0.127000
     33 H8          -1.8610     0.8150    -1.8610 ha         1 395       0.119000
     34 H10         -0.6930    -3.3120    -1.5580 ha         1 395       0.110000
     35 H11          1.1370    -2.9260    -3.1370 ha         1 395       0.109000
     36 H141         2.7200     0.9220    -5.7500 hc         1 395       0.037700
     37 H142         1.0090     0.6550    -5.9980 hc         1 395       0.037700
     38 H151         2.2520     1.9720    -3.5150 hc         1 395       0.041700
     39 H152         1.4870     2.8300    -4.8340 hc         1 395       0.041700
     40 H181        -1.0120     2.8420    -1.9980 hc         1 395       0.035200
     41 H182         0.6880     2.5280    -1.6220 hc         1 395       0.035200
     42 H183         0.2470     3.7720    -2.7980 hc         1 395       0.035200
     43 H191        -2.0550     2.0100    -4.0900 hc         1 395       0.035200
     44 H192        -0.9590     3.0230    -5.0340 hc         1 395       0.035200
     45 H193        -1.1190     1.2990    -5.4000 hc         1 395       0.035200
     46 H201         2.1350    -2.7550    -5.0960 hc         1 395       0.034367
     47 H202         0.9280    -1.8600    -6.0280 hc         1 395       0.034367
     48 H203         2.6530    -1.5820    -6.2980 hc         1 395       0.034367
     49 H211         3.3620    -1.7070    -3.2100 hc         1 395       0.034367
     50 H212         4.0890    -0.5500    -4.3290 hc         1 395       0.034367
     51 H213         3.2750     0.0170    -2.8630 hc         1 395       0.034367
     52 H22         -2.4640    -2.5390    -0.2370 h1         1 395       0.072700
     53 HN6         -0.5490    -1.4190     0.8880 hn         1 395       0.156000
     54 HO22        -4.3040    -0.6590    -0.7060 ho         1 395       0.472000
@<TRIPOS>BOND
     1     1     2 ar  
     2     1     6 ar  
     3     1    25 1   
     4     2     3 ar  
     5     2    30 1   
     6     3     4 ar  
     7     3     7 1   
     8     4     5 ar  
     9     4    31 1   
    10     5     6 ar  
    11     5    32 1   
    12     6    24 1   
    13     7    28 1   
    14     7    29 1   
    15     8     9 ar  
    16     8    17 ar  
    17     8    33 1   
    18     9    10 ar  
    19     9    22 1   
    20    10    11 ar  
    21    10    34 1   
    22    11    12 ar  
    23    11    35 1   
    24    12    13 1   
    25    12    17 ar  
    26    13    14 1   
    27    13    20 1   
    28    13    21 1   
    29    14    15 1   
    30    14    36 1   
    31    14    37 1   
    32    15    16 1   
    33    15    38 1   
    34    15    39 1   
    35    16    17 1   
    36    16    18 1   
    37    16    19 1   
    38    18    40 1   
    39    18    41 1   
    40    18    42 1   
    41    19    43 1   
    42    19    44 1   
    43    19    45 1   
    44    20    46 1   
    45    20    47 1   
    46    20    48 1   
    47    21    49 1   
    48    21    50 1   
    49    21    51 1   
    50    22    23 1   
    51    22    26 1   
    52    22    52 1   
    53    23    24 1   
    54    23    27 2   
    55    24    53 1   
    56    26    54 1   
@<TRIPOS>SUBSTRUCTURE
     1 395         1 TEMP              0 ****  ****    0 ROOT
