@<TRIPOS>MOLECULE
396
   62    67     1     0     0
SMALL
No Charge or Current Charge


@<TRIPOS>ATOM
      1 C26         -8.8410    -2.7800     0.3480 c5         1 396       0.156800
      2 C27        -10.3770    -2.6130     0.2210 c5         1 396      -0.079400
      3 C29        -10.6310    -1.1430     0.6860 c5         1 396      -0.079400
      4 C25         -9.2090    -0.5890     0.9720 c5         1 396       0.156800
      5 N4          -8.3750    -1.4080     0.0650 n3         1 396      -0.714600
      6 C24         -6.9100    -1.2100     0.1720 c3         1 396       0.154800
      7 C23         -6.4240     0.2070    -0.2160 c3         1 396       0.102000
      8 N3          -4.9630     0.3370    -0.1550 ns         1 396      -0.511900
      9 C22         -4.2740     1.5010    -0.4270 c          1 396       0.620700
     10 O4          -4.8760     2.5120    -0.7600 o          1 396      -0.573100
     11 C20         -2.7590     1.4020    -0.3440 ca         1 396      -0.146600
     12 C18         -2.1300     0.1340    -0.4810 ca         1 396      -0.085000
     13 C19         -1.9400     2.5550    -0.1390 ca         1 396       0.154100
     14 O3          -2.4910     3.7930     0.0360 oh         1 396      -0.513100
     15 C17         -0.5320     2.4490    -0.0760 ca         1 396      -0.150000
     16 C15          0.0760     1.1880    -0.2160 cp         1 396      -0.024000
     17 C16         -0.7340     0.0710    -0.4090 ca         1 396      -0.048200
     18 N2           0.1440    -1.0180    -0.5150 na         1 396      -0.088600
     19 C21         -0.3090    -2.4130    -0.6610 c3         1 396       0.067900
     20 C14          1.4930    -0.6540    -0.4110 ca         1 396       0.024800
     21 C1           2.6700    -1.4360    -0.4850 ca         1 396      -0.132000
     22 C13          1.4790     0.7370    -0.2140 cp         1 396      -0.041000
     23 C4           2.7420     1.3530    -0.0860 ca         1 396      -0.076600
     24 C5           3.1180     2.7890     0.1020 c          1 396       0.592600
     25 O1           2.4240     3.7840     0.2130 o          1 396      -0.502000
     26 N1           4.4860     2.7500     0.1220 ns         1 396      -0.490500
     27 C6           5.0720     1.5230    -0.0250 c          1 396       0.594600
     28 O2           6.2670     1.2830    -0.0590 o          1 396      -0.478000
     29 C3           3.9080     0.6010    -0.1520 ca         1 396      -0.172600
     30 C2           3.9390    -0.8050    -0.3420 cp         1 396       0.062000
     31 C7           5.1980    -1.5960    -0.4040 cp         1 396      -0.044000
     32 C12          5.6030    -2.1840    -1.6260 ca         1 396      -0.085000
     33 C11          6.7860    -2.9390    -1.7070 ca         1 396      -0.111000
     34 C10          7.5800    -3.1230    -0.5640 ca         1 396      -0.091000
     35 C9           7.1870    -2.5570     0.6610 ca         1 396      -0.103000
     36 C8           6.0050    -1.8010     0.7450 ca         1 396       0.153000
     37 Cl5          5.5410    -1.1460     2.3160 cl         1 396      -0.195000
     38 H26         -8.5580    -3.0980     1.3620 h1         1 396       0.036450
     39 H26A        -8.4460    -3.5160    -0.3660 h1         1 396       0.036450
     40 H27        -10.7000    -2.7520    -0.8170 hc         1 396       0.048200
     41 H27A       -10.9180    -3.3460     0.8290 hc         1 396       0.048200
     42 H29        -11.1270    -0.5660    -0.1020 hc         1 396       0.048200
     43 H29A       -11.2690    -1.0900     1.5750 hc         1 396       0.048200
     44 H25         -9.1410     0.4870     0.7590 h1         1 396       0.036450
     45 H25A        -8.9270    -0.7480     2.0230 h1         1 396       0.036450
     46 H24         -6.5810    -1.4230     1.1990 h1         1 396       0.029700
     47 H24A        -6.4040    -1.9310    -0.4840 h1         1 396       0.029700
     48 H23         -6.7570     0.4330    -1.2370 h1         1 396       0.060700
     49 H23A        -6.8700     0.9460     0.4620 h1         1 396       0.060700
     50 HN3         -4.4150    -0.4620     0.1350 hn         1 396       0.312500
     51 H18         -2.7000    -0.7730    -0.6660 ha         1 396       0.126000
     52 HO3         -1.7710     4.4470     0.1580 ho         1 396       0.470000
     53 H17          0.0680     3.3360     0.0820 ha         1 396       0.149000
     54 H21         -0.4130    -2.6540    -1.7260 h1         1 396       0.051700
     55 H21A         0.4170    -3.0950    -0.2030 h1         1 396       0.051700
     56 H21B        -1.2760    -2.5490    -0.1610 h1         1 396       0.051700
     57 H1           2.6150    -2.5090    -0.6430 ha         1 396       0.128000
     58 HN1          5.0350     3.5880     0.2290 hn         1 396       0.347500
     59 H12          4.9940    -2.0460    -2.5170 ha         1 396       0.119000
     60 H11          7.0860    -3.3800    -2.6550 ha         1 396       0.119000
     61 H10          8.4960    -3.7080    -0.6250 ha         1 396       0.119000
     62 H9           7.7970    -2.7080     1.5490 ha         1 396       0.132000
@<TRIPOS>BOND
     1     1     2 1   
     2     1     5 1   
     3     1    38 1   
     4     1    39 1   
     5     2     3 1   
     6     2    40 1   
     7     2    41 1   
     8     3     4 1   
     9     3    42 1   
    10     3    43 1   
    11     4     5 1   
    12     4    44 1   
    13     4    45 1   
    14     5     6 1   
    15     6     7 1   
    16     6    46 1   
    17     6    47 1   
    18     7     8 1   
    19     7    48 1   
    20     7    49 1   
    21     8     9 1   
    22     8    50 1   
    23     9    10 2   
    24     9    11 1   
    25    11    12 ar  
    26    11    13 ar  
    27    12    17 ar  
    28    12    51 1   
    29    13    14 1   
    30    13    15 ar  
    31    14    52 1   
    32    15    16 ar  
    33    15    53 1   
    34    16    17 ar  
    35    16    22 1   
    36    17    18 1   
    37    18    19 1   
    38    18    20 1   
    39    19    54 1   
    40    19    55 1   
    41    19    56 1   
    42    20    21 ar  
    43    20    22 ar  
    44    21    30 ar  
    45    21    57 1   
    46    22    23 ar  
    47    23    24 1   
    48    23    29 ar  
    49    24    25 2   
    50    24    26 1   
    51    26    27 1   
    52    26    58 1   
    53    27    28 2   
    54    27    29 1   
    55    29    30 ar  
    56    30    31 1   
    57    31    32 ar  
    58    31    36 ar  
    59    32    33 ar  
    60    32    59 1   
    61    33    34 ar  
    62    33    60 1   
    63    34    35 ar  
    64    34    61 1   
    65    35    36 ar  
    66    35    62 1   
    67    36    37 1   
@<TRIPOS>SUBSTRUCTURE
     1 396         1 TEMP              0 ****  ****    0 ROOT
