@<TRIPOS>MOLECULE
396
   62    67     1     0     0
SMALL
abcg2


@<TRIPOS>ATOM
      1 C26         -8.6770    -2.6230     0.6310 c5         1 396       0.156800
      2 C27        -10.1970    -2.5110     0.5950 c5         1 396      -0.079400
      3 C29        -10.4630    -1.0170     0.8680 c5         1 396      -0.079400
      4 C25         -9.0750    -0.3630     0.8420 c5         1 396       0.156800
      5 N4          -8.2320    -1.3270     0.1490 n3         1 396      -0.714600
      6 C24         -6.8160    -1.1180     0.3140 c3         1 396       0.154800
      7 C23         -6.3440     0.1540    -0.3740 c3         1 396       0.102000
      8 N3          -4.9090     0.2800    -0.2340 ns         1 396      -0.511900
      9 C22         -4.2010     1.2190    -0.8770 c          1 396       0.620700
     10 O4          -4.7050     2.0360    -1.6330 o          1 396      -0.573100
     11 C20         -2.7250     1.1640    -0.6290 ca         1 396      -0.146600
     12 C18         -2.0510    -0.0330    -0.8240 ca         1 396      -0.085000
     13 C19         -2.0240     2.3270    -0.2510 ca         1 396       0.154100
     14 O3          -2.7490     3.4440    -0.0430 oh         1 396      -0.513100
     15 C17         -0.6510     2.2970    -0.0740 ca         1 396      -0.150000
     16 C15          0.0350     1.1020    -0.2850 cp         1 396      -0.024000
     17 C16         -0.6750    -0.0530    -0.6550 ca         1 396      -0.048200
     18 N2           0.1950    -1.1110    -0.8060 na         1 396      -0.088600
     19 C21         -0.2050    -2.4380    -1.2010 c3         1 396       0.067900
     20 C14          1.4580    -0.6730    -0.5570 ca         1 396       0.024800
     21 C1           2.6510    -1.3970    -0.6040 ca         1 396      -0.132000
     22 C13          1.4150     0.7090    -0.2160 cp         1 396      -0.041000
     23 C4           2.6270     1.3100     0.0750 ca         1 396      -0.076600
     24 C5           2.9560     2.7090     0.4500 c          1 396       0.592600
     25 O1           2.2120     3.6470     0.6040 o          1 396      -0.502000
     26 N1           4.3240     2.7380     0.5970 ns         1 396      -0.490500
     27 C6           4.9210     1.5110     0.3520 c          1 396       0.594600
     28 O2           6.1050     1.2960     0.3920 o          1 396      -0.478000
     29 C3           3.8090     0.5880     0.0330 ca         1 396      -0.172600
     30 C2           3.8490    -0.7670    -0.3000 cp         1 396       0.062000
     31 C7           5.1100    -1.5360    -0.3630 cp         1 396      -0.044000
     32 C12          5.5740    -2.0000    -1.5920 ca         1 396      -0.085000
     33 C11          6.7410    -2.7430    -1.6850 ca         1 396      -0.111000
     34 C10          7.4610    -3.0410    -0.5390 ca         1 396      -0.091000
     35 C9           7.0130    -2.6000     0.6980 ca         1 396      -0.103000
     36 C8           5.8470    -1.8560     0.7740 ca         1 396       0.153000
     37 CL5          5.2910    -1.3430     2.3320 cl         1 396      -0.195000
     38 H26         -8.3340    -2.8120     1.6630 h1         1 396       0.036450
     39 H26A        -8.2860    -3.4280     0.0050 h1         1 396       0.036450
     40 H27        -10.5740    -2.7930    -0.3890 hc         1 396       0.048200
     41 H27A       -10.6700    -3.1660     1.3250 hc         1 396       0.048200
     42 H29        -11.1160    -0.5900     0.1070 hc         1 396       0.048200
     43 H29A       -10.9470    -0.8550     1.8310 hc         1 396       0.048200
     44 H25         -9.0800     0.6030     0.3340 h1         1 396       0.036450
     45 H25A        -8.7150    -0.1880     1.8700 h1         1 396       0.036450
     46 H24         -6.5320    -1.0850     1.3820 h1         1 396       0.029700
     47 H24A        -6.2870    -1.9680    -0.1260 h1         1 396       0.029700
     48 H23         -6.6090     0.1120    -1.4320 h1         1 396       0.060700
     49 H23A        -6.8410     1.0310     0.0510 h1         1 396       0.060700
     50 HN3         -4.4470    -0.2780     0.4670 hn         1 396       0.312500
     51 H18         -2.5930    -0.9210    -1.1220 ha         1 396       0.126000
     52 HO3         -2.1730     4.1620     0.2440 ho         1 396       0.470000
     53 H17         -0.1210     3.1910     0.2280 ha         1 396       0.149000
     54 H21         -0.4940    -2.4670    -2.2520 h1         1 396       0.051700
     55 H21A         0.6140    -3.1340    -1.0480 h1         1 396       0.051700
     56 H21B        -1.0440    -2.7750    -0.5940 h1         1 396       0.051700
     57 H1           2.6530    -2.4470    -0.8660 ha         1 396       0.128000
     58 HN1          4.8410     3.5710     0.8420 hn         1 396       0.347500
     59 H12          5.0120    -1.7620    -2.4860 ha         1 396       0.119000
     60 H11          7.0850    -3.0840    -2.6520 ha         1 396       0.119000
     61 H10          8.3720    -3.6220    -0.5990 ha         1 396       0.119000
     62 H9           7.5650    -2.8380     1.5980 ha         1 396       0.132000
@<TRIPOS>BOND
     1     1     2 1   
     2     1     5 1   
     3     1    38 1   
     4     1    39 1   
     5     2     3 1   
     6     2    40 1   
     7     2    41 1   
     8     3     4 1   
     9     3    42 1   
    10     3    43 1   
    11     4     5 1   
    12     4    44 1   
    13     4    45 1   
    14     5     6 1   
    15     6     7 1   
    16     6    46 1   
    17     6    47 1   
    18     7     8 1   
    19     7    48 1   
    20     7    49 1   
    21     8     9 1   
    22     8    50 1   
    23     9    10 2   
    24     9    11 1   
    25    11    12 ar  
    26    11    13 ar  
    27    12    17 ar  
    28    12    51 1   
    29    13    14 1   
    30    13    15 ar  
    31    14    52 1   
    32    15    16 ar  
    33    15    53 1   
    34    16    17 ar  
    35    16    22 1   
    36    17    18 1   
    37    18    19 1   
    38    18    20 1   
    39    19    54 1   
    40    19    55 1   
    41    19    56 1   
    42    20    21 ar  
    43    20    22 ar  
    44    21    30 ar  
    45    21    57 1   
    46    22    23 ar  
    47    23    24 1   
    48    23    29 ar  
    49    24    25 2   
    50    24    26 1   
    51    26    27 1   
    52    26    58 1   
    53    27    28 2   
    54    27    29 1   
    55    29    30 ar  
    56    30    31 1   
    57    31    32 ar  
    58    31    36 ar  
    59    32    33 ar  
    60    32    59 1   
    61    33    34 ar  
    62    33    60 1   
    63    34    35 ar  
    64    34    61 1   
    65    35    36 ar  
    66    35    62 1   
    67    36    37 1   
@<TRIPOS>SUBSTRUCTURE
     1 396         1 TEMP              0 ****  ****    0 ROOT
