@<TRIPOS>MOLECULE
397
   27    29     1     0     0
SMALL
bcc


@<TRIPOS>ATOM
      1 C1           1.1710    -0.0860    -4.0670 ca         1 397      -0.142000
      2 C2           1.6700    -0.0420    -2.7760 ca         1 397      -0.085000
      3 C3           0.7470    -0.0400    -1.7470 ca         1 397       0.025100
      4 C4          -0.6300    -0.0810    -1.9620 ca         1 397      -0.065800
      5 C5          -1.1250    -0.1240    -3.2670 ca         1 397      -0.186000
      6 C6          -0.2130    -0.1260    -4.3120 ca         1 397       0.124100
      7 O10          1.0090    -0.0010    -0.4180 os         1 397      -0.173200
      8 C11         -0.1870    -0.0150     0.2270 cc         1 397       0.110900
      9 C12         -1.2180    -0.0630    -0.6580 cd         1 397      -0.193200
     10 C13         -0.1490     0.0250     1.6790 ca         1 397      -0.080800
     11 C14          1.0560     0.1070     2.3790 ca         1 397      -0.060500
     12 C15          1.0750     0.1480     3.7630 ca         1 397      -0.199500
     13 C16         -0.1160     0.1070     4.4830 ca         1 397       0.153100
     14 C17         -1.3270     0.0240     3.7960 ca         1 397      -0.199500
     15 C18         -1.3370    -0.0170     2.4160 ca         1 397      -0.060500
     16 O23         -0.5960    -0.1670    -5.6090 oh         1 397      -0.497100
     17 O24         -0.1570     0.1440     5.8260 oh         1 397      -0.490100
     18 H1           1.8540    -0.0890    -4.9060 ha         1 397       0.150000
     19 H2           2.7360    -0.0110    -2.5930 ha         1 397       0.150000
     20 H5          -2.1920    -0.1560    -3.4540 ha         1 397       0.138000
     21 H12         -2.2700    -0.0820    -0.4230 ha         1 397       0.161000
     22 H14          1.9990     0.1420     1.8510 ha         1 397       0.141500
     23 H15          2.0240     0.2150     4.2820 ha         1 397       0.142000
     24 H17         -2.2580    -0.0100     4.3470 ha         1 397       0.142000
     25 H18         -2.2910    -0.0840     1.9090 ha         1 397       0.141500
     26 H23         -1.5570    -0.1890    -5.6740 ho         1 397       0.425000
     27 H24          0.7340     0.2080     6.1890 ho         1 397       0.429000
@<TRIPOS>BOND
     1     1     2 ar  
     2     1     6 ar  
     3     1    18 1   
     4     2     3 ar  
     5     2    19 1   
     6     3     4 ar  
     7     3     7 1   
     8     4     5 ar  
     9     4     9 1   
    10     5     6 ar  
    11     5    20 1   
    12     6    16 1   
    13     7     8 1   
    14     8     9 2   
    15     8    10 1   
    16     9    21 1   
    17    10    11 ar  
    18    10    15 ar  
    19    11    12 ar  
    20    11    22 1   
    21    12    13 ar  
    22    12    23 1   
    23    13    14 ar  
    24    13    17 1   
    25    14    15 ar  
    26    14    24 1   
    27    15    25 1   
    28    16    26 1   
    29    17    27 1   
@<TRIPOS>SUBSTRUCTURE
     1 397         1 TEMP              0 ****  ****    0 ROOT
