@<TRIPOS>MOLECULE
397
   27    29     1     0     0
SMALL
No Charge or Current Charge


@<TRIPOS>ATOM
      1 C1           1.1420    -0.1590    -4.1760 ca         1 397      -0.124000
      2 C2           1.7070    -0.1650    -2.8790 ca         1 397      -0.067000
      3 C3           0.8360    -0.1100    -1.7840 ca         1 397       0.025100
      4 C4          -0.5240    -0.0510    -1.9660 ca         1 397      -0.065800
      5 C5          -1.1190    -0.0420    -3.2320 ca         1 397      -0.168000
      6 C6          -0.2610    -0.0980    -4.3510 ca         1 397       0.124100
      7 O10          1.2050    -0.1050    -0.4520 os         1 397      -0.173200
      8 C11         -0.0120    -0.0430     0.2260 cc         1 397       0.110900
      9 C12         -1.0770    -0.0050    -0.6520 cd         1 397      -0.243200
     10 C13         -0.0950     0.0070     1.6900 ca         1 397      -0.080800
     11 C14          1.0770     0.2060     2.4510 ca         1 397      -0.042500
     12 C15          1.0210     0.2560     3.8560 ca         1 397      -0.181500
     13 C16         -0.2080     0.1060     4.5140 ca         1 397       0.153100
     14 C17         -1.3780    -0.0950     3.7720 ca         1 397      -0.181500
     15 C18         -1.3260    -0.1460     2.3670 ca         1 397      -0.042500
     16 O23         -0.7820    -0.0930    -5.6110 oh         1 397      -0.536100
     17 O24         -0.2710     0.1530     5.8740 oh         1 397      -0.529100
     18 H1           1.7920    -0.2020    -5.0460 ha         1 397       0.132000
     19 H2           2.7840    -0.2120    -2.7340 ha         1 397       0.132000
     20 H5          -2.2000     0.0060    -3.3410 ha         1 397       0.120000
     21 H12         -2.1300     0.0670    -0.3990 ha         1 397       0.211000
     22 H14          2.0380     0.3260     1.9550 ha         1 397       0.123500
     23 H15          1.9360     0.4120     4.4220 ha         1 397       0.124000
     24 H17         -2.3300    -0.2150     4.2830 ha         1 397       0.124000
     25 H18         -2.2470    -0.3120     1.8160 ha         1 397       0.123500
     26 H23         -1.7600    -0.0470    -5.5430 ho         1 397       0.464000
     27 H24          0.6350     0.2990     6.2220 ho         1 397       0.468000
@<TRIPOS>BOND
     1     1     2 ar  
     2     1     6 ar  
     3     1    18 1   
     4     2     3 ar  
     5     2    19 1   
     6     3     4 ar  
     7     3     7 1   
     8     4     5 ar  
     9     4     9 1   
    10     5     6 ar  
    11     5    20 1   
    12     6    16 1   
    13     7     8 1   
    14     8     9 2   
    15     8    10 1   
    16     9    21 1   
    17    10    11 ar  
    18    10    15 ar  
    19    11    12 ar  
    20    11    22 1   
    21    12    13 ar  
    22    12    23 1   
    23    13    14 ar  
    24    13    17 1   
    25    14    15 ar  
    26    14    24 1   
    27    15    25 1   
    28    16    26 1   
    29    17    27 1   
@<TRIPOS>SUBSTRUCTURE
     1 397         1 TEMP              0 ****  ****    0 ROOT
