@<TRIPOS>MOLECULE
398
   94    99     1     0     0
SMALL
abcg2


@<TRIPOS>ATOM
      1 O53         -3.5610     2.7330     2.2930 o          1 398      -0.579100
      2 C42         -2.7240     1.8990     1.9830 c          1 398       0.624700
      3 N43         -2.4860     0.7770     2.6790 n          1 398      -0.386800
      4 C48         -1.6560    -0.3170     2.2180 c6         1 398       0.152300
      5 C47         -2.3800    -1.6420     2.2560 ca         1 398      -0.102300
      6 C49         -1.7320    -2.7620     1.7400 ca         1 398      -0.107000
      7 C50         -2.3520    -4.0000     1.7310 ca         1 398      -0.113000
      8 C51         -3.6390    -4.1260     2.2410 ca         1 398      -0.108000
      9 C52         -4.2780    -3.0180     2.7700 ca         1 398      -0.106000
     10 C46         -3.6580    -1.7700     2.7960 ca         1 398      -0.052300
     11 C45         -4.3350    -0.5880     3.4350 c6         1 398      -0.061100
     12 C44         -3.3060     0.4550     3.8340 c6         1 398       0.094000
     13 C1          -1.8670     2.1790     0.7800 ca         1 398      -0.132600
     14 C6          -2.4730     2.3010    -0.4690 ca         1 398       0.071800
     15 N7          -3.8280     1.9390    -0.5970 na         1 398       0.216000
     16 N11         -4.1970     0.7230    -0.1960 nc         1 398      -0.491800
     17 C10         -5.5030     0.6830    -0.3380 cd         1 398       0.231500
     18 C12         -6.3180    -0.4970     0.0660 c          1 398       0.538600
     19 O22         -7.2050    -0.3340     0.8960 o          1 398      -0.585100
     20 N13         -6.0290    -1.6760    -0.5000 n          1 398      -0.390800
     21 C18         -5.1220    -1.8450    -1.6270 c3         1 398       0.106000
     22 C19         -3.7520    -2.3770    -1.2370 c3         1 398      -0.100900
     23 C20         -2.8220    -2.4790    -2.4390 c3         1 398      -0.071900
     24 C21         -1.4440    -3.0070    -2.0670 c3         1 398      -0.087100
     25 C14         -6.7550    -2.8610    -0.0690 c3         1 398       0.106000
     26 C15         -8.0300    -3.0970    -0.8680 c3         1 398      -0.100900
     27 C16         -8.7420    -4.3780    -0.4500 c3         1 398      -0.071900
     28 C17        -10.0020    -4.6350    -1.2630 c3         1 398      -0.087100
     29 C9          -5.9730     1.9150    -0.8240 cd         1 398       0.021000
     30 CL23        -7.5900     2.3390    -1.1750 cl         1 398      -0.135000
     31 C8          -4.8680     2.7160    -0.9870 cc         1 398      -0.094300
     32 C24         -4.7450     4.1210    -1.4430 c3         1 398      -0.033800
     33 C5          -1.7570     2.7330    -1.5710 ca         1 398      -0.121000
     34 C4          -0.4150     3.0490    -1.4320 ca         1 398      -0.059000
     35 C3           0.2090     2.9170    -0.1970 ca         1 398      -0.160600
     36 C2          -0.5250     2.4900     0.9080 ca         1 398      -0.028000
     37 C25          1.6420     3.2570     0.0130 c          1 398       0.648700
     38 O26          2.0880     3.5850     1.0890 o          1 398      -0.544100
     39 N27          2.4370     3.1660    -1.1020 ns         1 398      -0.583300
     40 S28          4.0550     3.6180    -1.1220 sy         1 398       1.179300
     41 O29          4.4690     3.3240    -2.4800 o          1 398      -0.522000
     42 O30          4.1680     4.9590    -0.5930 o          1 398      -0.522000
     43 C31          4.8460     2.4890    -0.0170 ca         1 398      -0.285500
     44 C36          5.1230     1.2280    -0.4730 ca         1 398       0.019000
     45 C35          5.7670     0.3100     0.3820 ca         1 398      -0.074000
     46 C37          6.0620    -1.0040    -0.0520 ca         1 398      -0.049000
     47 C38          6.6930    -1.8660     0.7980 ca         1 398       0.188000
     48 I41          7.1330    -3.8210     0.1690 i          1 398      -0.300000
     49 C39          7.0610    -1.4750     2.1040 ca         1 398      -0.063000
     50 C40          6.7820    -0.2080     2.5340 ca         1 398      -0.109000
     51 C34          6.1280     0.7180     1.6910 ca         1 398       0.018000
     52 C33          5.8300     2.0340     2.1120 ca         1 398      -0.113000
     53 C32          5.1950     2.9120     1.2800 ca         1 398      -0.007000
     54 H481        -1.3300    -0.1240     1.1970 h1         1 398       0.056200
     55 H482        -0.7520    -0.3750     2.8320 h1         1 398       0.056200
     56 H441        -2.6530     0.0640     4.6190 h1         1 398       0.066200
     57 H442        -3.7760     1.3570     4.2140 h1         1 398       0.066200
     58 H49         -0.7320    -2.6590     1.3350 ha         1 398       0.108000
     59 H50         -1.8390    -4.8600     1.3210 ha         1 398       0.113000
     60 H51         -4.1360    -5.0880     2.2360 ha         1 398       0.113000
     61 H52         -5.2740    -3.1220     3.1860 ha         1 398       0.116000
     62 H451        -5.0610    -0.1440     2.7490 hc         1 398       0.072200
     63 H452        -4.8930    -0.9100     4.3170 hc         1 398       0.072200
     64 H2          -0.0450     2.4080     1.8750 ha         1 398       0.149000
     65 H5          -2.2330     2.8100    -2.5390 ha         1 398       0.136000
     66 H181        -5.6030    -2.5270    -2.3340 h1         1 398       0.051200
     67 H182        -5.0210    -0.8960    -2.1540 h1         1 398       0.051200
     68 H141        -6.0830    -3.7160    -0.1740 h1         1 398       0.051200
     69 H142        -6.9800    -2.7760     0.9930 h1         1 398       0.051200
     70 H191        -3.3140    -1.7220    -0.4830 hc         1 398       0.052950
     71 H192        -3.8520    -3.3600    -0.7680 hc         1 398       0.052950
     72 H201        -3.2690    -3.1270    -3.2010 hc         1 398       0.036200
     73 H202        -2.7220    -1.4920    -2.9030 hc         1 398       0.036200
     74 H211        -0.9650    -2.3650    -1.3260 hc         1 398       0.031867
     75 H212        -1.5090    -4.0070    -1.6360 hc         1 398       0.031867
     76 H213        -0.7870    -3.0610    -2.9360 hc         1 398       0.031867
     77 H151        -8.7020    -2.2440    -0.7420 hc         1 398       0.052950
     78 H152        -7.7880    -3.1500    -1.9340 hc         1 398       0.052950
     79 H161        -8.0570    -5.2250    -0.5550 hc         1 398       0.036200
     80 H162        -8.9960    -4.3240     0.6130 hc         1 398       0.036200
     81 H171       -10.7120    -3.8120    -1.1600 hc         1 398       0.031867
     82 H172        -9.7720    -4.7390    -2.3250 hc         1 398       0.031867
     83 H173       -10.5060    -5.5480    -0.9430 hc         1 398       0.031867
     84 H241        -4.4010     4.1830    -2.4760 hc         1 398       0.061700
     85 H242        -5.7130     4.6140    -1.3890 hc         1 398       0.061700
     86 H243        -4.0450     4.6810    -0.8230 hc         1 398       0.061700
     87 H4           0.1210     3.4050    -2.3010 ha         1 398       0.126000
     88 H27          2.1060     2.7210    -1.9500 hn         1 398       0.347500
     89 H36          4.8590     0.9150    -1.4750 ha         1 398       0.131000
     90 H32          4.9740     3.9150     1.6130 ha         1 398       0.152000
     91 H37          5.7770    -1.2990    -1.0540 ha         1 398       0.130000
     92 H39          7.5630    -2.1690     2.7640 ha         1 398       0.131000
     93 H40          7.0640     0.0930     3.5350 ha         1 398       0.125000
     94 H33          6.1130     2.3440     3.1100 ha         1 398       0.125000
@<TRIPOS>BOND
     1     1     2 2   
     2     2     3 1   
     3     2    13 1   
     4     3     4 1   
     5     3    12 1   
     6     4     5 1   
     7     4    54 1   
     8     4    55 1   
     9     5     6 ar  
    10     5    10 ar  
    11     6     7 ar  
    12     6    58 1   
    13     7     8 ar  
    14     7    59 1   
    15     8     9 ar  
    16     8    60 1   
    17     9    10 ar  
    18     9    61 1   
    19    10    11 1   
    20    11    12 1   
    21    11    62 1   
    22    11    63 1   
    23    12    56 1   
    24    12    57 1   
    25    13    14 ar  
    26    13    36 ar  
    27    14    15 1   
    28    14    33 ar  
    29    15    16 1   
    30    15    31 1   
    31    16    17 2   
    32    17    18 1   
    33    17    29 1   
    34    18    19 2   
    35    18    20 1   
    36    20    21 1   
    37    20    25 1   
    38    21    22 1   
    39    21    66 1   
    40    21    67 1   
    41    22    23 1   
    42    22    70 1   
    43    22    71 1   
    44    23    24 1   
    45    23    72 1   
    46    23    73 1   
    47    24    74 1   
    48    24    75 1   
    49    24    76 1   
    50    25    26 1   
    51    25    68 1   
    52    25    69 1   
    53    26    27 1   
    54    26    77 1   
    55    26    78 1   
    56    27    28 1   
    57    27    79 1   
    58    27    80 1   
    59    28    81 1   
    60    28    82 1   
    61    28    83 1   
    62    29    30 1   
    63    29    31 2   
    64    31    32 1   
    65    32    84 1   
    66    32    85 1   
    67    32    86 1   
    68    33    34 ar  
    69    33    65 1   
    70    34    35 ar  
    71    34    87 1   
    72    35    36 ar  
    73    35    37 1   
    74    36    64 1   
    75    37    38 2   
    76    37    39 1   
    77    39    40 1   
    78    39    88 1   
    79    40    41 2   
    80    40    42 2   
    81    40    43 1   
    82    43    44 ar  
    83    43    53 ar  
    84    44    45 ar  
    85    44    89 1   
    86    45    46 ar  
    87    45    51 ar  
    88    46    47 ar  
    89    46    91 1   
    90    47    48 1   
    91    47    49 ar  
    92    49    50 ar  
    93    49    92 1   
    94    50    51 ar  
    95    50    93 1   
    96    51    52 ar  
    97    52    53 ar  
    98    52    94 1   
    99    53    90 1   
@<TRIPOS>SUBSTRUCTURE
     1 398         1 TEMP              0 ****  ****    0 ROOT
