@<TRIPOS>MOLECULE
398
   94    99     1     0     0
SMALL
No Charge or Current Charge


@<TRIPOS>ATOM
      1 O53         -4.0920     3.0150     1.9700 o          1 398      -0.579100
      2 C42         -3.1130     2.2990     1.8020 c          1 398       0.624700
      3 N43         -2.8160     1.2540     2.7030 n          1 398      -0.386800
      4 C48         -1.8420     0.1690     2.4020 c6         1 398       0.152300
      5 C47         -2.4170    -1.2500     2.5560 ca         1 398      -0.102300
      6 C49         -1.6220    -2.3570     2.2020 ca         1 398      -0.107000
      7 C50         -2.1370    -3.6610     2.2880 ca         1 398      -0.113000
      8 C51         -3.4530    -3.8680     2.7320 ca         1 398      -0.108000
      9 C52         -4.2470    -2.7720     3.1060 ca         1 398      -0.106000
     10 C46         -3.7320    -1.4640     3.0320 ca         1 398      -0.052300
     11 C45         -4.5910    -0.2820     3.4740 c6         1 398      -0.061100
     12 C44         -3.7180     0.9360     3.8340 c6         1 398       0.094000
     13 C1          -2.1520     2.5770     0.6750 ca         1 398      -0.132600
     14 C6          -2.6090     2.5720    -0.6610 ca         1 398       0.071800
     15 N7          -3.9200     2.1920    -0.9540 na         1 398       0.216000
     16 N11         -4.2510     0.8720    -0.8230 nc         1 398      -0.491800
     17 C10         -5.5810     0.8920    -0.8530 cd         1 398       0.231500
     18 C12         -6.4460    -0.3420    -0.6350 c          1 398       0.538600
     19 O22         -7.6370    -0.2590    -0.3450 o          1 398      -0.585100
     20 N13         -5.8470    -1.6380    -0.7390 n          1 398      -0.390800
     21 C18         -4.6970    -1.9290    -1.6360 c3         1 398       0.106000
     22 C19         -3.3660    -2.2220    -0.9100 c3         1 398      -0.100900
     23 C20         -2.1810    -2.3460    -1.8930 c3         1 398      -0.071900
     24 C21         -0.8260    -2.5690    -1.1970 c3         1 398      -0.087100
     25 C14         -6.5170    -2.8080    -0.1230 c3         1 398       0.106000
     26 C15         -7.4440    -3.5810    -1.0850 c3         1 398      -0.100900
     27 C16         -8.1540    -4.7710    -0.4040 c3         1 398      -0.071900
     28 C17         -9.0820    -5.5470    -1.3580 c3         1 398      -0.087100
     29 C9          -6.0530     2.2390    -0.9880 cd         1 398       0.021000
     30 Cl23        -7.7230     2.7260    -1.0290 cl         1 398      -0.135000
     31 C8          -4.9770     3.0800    -1.0590 cc         1 398      -0.094300
     32 C24         -4.8850     4.5810    -1.1540 c3         1 398      -0.033800
     33 C5          -1.7100     2.8480    -1.7040 ca         1 398      -0.121000
     34 C4          -0.3600     3.1250    -1.4290 ca         1 398      -0.059000
     35 C3           0.1180     3.1210    -0.0960 ca         1 398      -0.160600
     36 C2          -0.7960     2.8490     0.9480 ca         1 398      -0.028000
     37 C25          1.5690     3.3860     0.2490 c          1 398       0.648700
     38 O26          1.9560     3.4160     1.4060 o          1 398      -0.544100
     39 N27          2.4150     3.5780    -0.7980 ns         1 398      -0.583300
     40 S28          4.0750     3.7640    -0.7370 sy         1 398       1.179300
     41 O29          4.5010     3.7900    -2.1400 o          1 398      -0.522000
     42 O30          4.3390     4.8890     0.1670 o          1 398      -0.522000
     43 C31          4.6750     2.2450     0.0250 ca         1 398      -0.285500
     44 C36          4.8070     1.0780    -0.7560 ca         1 398       0.019000
     45 C35          5.2530    -0.1200    -0.1650 ca         1 398      -0.074000
     46 C37          5.3820    -1.2900    -0.9390 ca         1 398      -0.049000
     47 C38          5.8240    -2.4820    -0.3440 ca         1 398       0.188000
     48 I41          6.0170    -4.2780    -1.5380 i          1 398      -0.300000
     49 C39          6.1410    -2.5150     1.0240 ca         1 398      -0.063000
     50 C40          6.0140    -1.3500     1.8030 ca         1 398      -0.109000
     51 C34          5.5700    -0.1520     1.2120 ca         1 398       0.018000
     52 C33          5.4370     1.0140     1.9870 ca         1 398      -0.113000
     53 C32          4.9900     2.2090     1.4000 ca         1 398      -0.007000
     54 H481        -1.4690     0.2610     1.3730 h1         1 398       0.056200
     55 H482        -0.9760     0.2770     3.0710 h1         1 398       0.056200
     56 H441        -3.1120     0.7040     4.7220 h1         1 398       0.066200
     57 H442        -4.3540     1.7940     4.0910 h1         1 398       0.066200
     58 H49         -0.6030    -2.2050     1.8520 ha         1 398       0.108000
     59 H50         -1.5180    -4.5090     2.0050 ha         1 398       0.113000
     60 H51         -3.8540    -4.8770     2.7930 ha         1 398       0.113000
     61 H52         -5.2620    -2.9400     3.4610 ha         1 398       0.116000
     62 H451        -5.2840    -0.0120     2.6650 hc         1 398       0.072200
     63 H452        -5.2080    -0.5580     4.3400 hc         1 398       0.072200
     64 H2          -0.4570     2.8510     1.9840 ha         1 398       0.149000
     65 H5          -2.0550     2.8270    -2.7360 ha         1 398       0.136000
     66 H181        -4.9450    -2.8040    -2.2500 h1         1 398       0.051200
     67 H182        -4.5630    -1.1040    -2.3460 h1         1 398       0.051200
     68 H141        -5.7460    -3.4940     0.2540 h1         1 398       0.051200
     69 H142        -7.0950    -2.4770     0.7500 h1         1 398       0.051200
     70 H191        -3.1540    -1.4260    -0.1890 hc         1 398       0.052950
     71 H192        -3.4630    -3.1500    -0.3350 hc         1 398       0.052950
     72 H201        -2.3690    -3.1780    -2.5830 hc         1 398       0.036200
     73 H202        -2.1170    -1.4340    -2.5000 hc         1 398       0.036200
     74 H211        -0.5770    -1.7140    -0.5570 hc         1 398       0.031867
     75 H212        -0.8500    -3.4750    -0.5800 hc         1 398       0.031867
     76 H213        -0.0290    -2.6810    -1.9410 hc         1 398       0.031867
     77 H151        -8.1980    -2.8920    -1.4850 hc         1 398       0.052950
     78 H152        -6.8640    -3.9520    -1.9380 hc         1 398       0.052950
     79 H161        -7.4010    -5.4600     0.0000 hc         1 398       0.036200
     80 H162        -8.7420    -4.4050     0.4470 hc         1 398       0.036200
     81 H171        -9.8680    -4.8920    -1.7520 hc         1 398       0.031867
     82 H172        -8.5150    -5.9570    -2.2020 hc         1 398       0.031867
     83 H173        -9.5620    -6.3800    -0.8300 hc         1 398       0.031867
     84 H241        -4.1100     4.8850    -1.8670 hc         1 398       0.061700
     85 H242        -5.8340     5.0170    -1.4880 hc         1 398       0.061700
     86 H243        -4.6380     5.0180    -0.1790 hc         1 398       0.061700
     87 H4           0.2990     3.3300    -2.2690 ha         1 398       0.126000
     88 H27          2.0820     3.5120    -1.7420 hn         1 398       0.347500
     89 H36          4.5600     1.0960    -1.8160 ha         1 398       0.131000
     90 H32          4.8820     3.0990     2.0190 ha         1 398       0.152000
     91 H37          5.1400    -1.2810    -1.9990 ha         1 398       0.130000
     92 H39          6.4820    -3.4410     1.4780 ha         1 398       0.131000
     93 H40          6.2590    -1.3820     2.8620 ha         1 398       0.125000
     94 H33          5.6760     0.9960     3.0480 ha         1 398       0.125000
@<TRIPOS>BOND
     1     1     2 2   
     2     2     3 1   
     3     2    13 1   
     4     3     4 1   
     5     3    12 1   
     6     4     5 1   
     7     4    54 1   
     8     4    55 1   
     9     5     6 ar  
    10     5    10 ar  
    11     6     7 ar  
    12     6    58 1   
    13     7     8 ar  
    14     7    59 1   
    15     8     9 ar  
    16     8    60 1   
    17     9    10 ar  
    18     9    61 1   
    19    10    11 1   
    20    11    12 1   
    21    11    62 1   
    22    11    63 1   
    23    12    56 1   
    24    12    57 1   
    25    13    14 ar  
    26    13    36 ar  
    27    14    15 1   
    28    14    33 ar  
    29    15    16 1   
    30    15    31 1   
    31    16    17 2   
    32    17    18 1   
    33    17    29 1   
    34    18    19 2   
    35    18    20 1   
    36    20    21 1   
    37    20    25 1   
    38    21    22 1   
    39    21    66 1   
    40    21    67 1   
    41    22    23 1   
    42    22    70 1   
    43    22    71 1   
    44    23    24 1   
    45    23    72 1   
    46    23    73 1   
    47    24    74 1   
    48    24    75 1   
    49    24    76 1   
    50    25    26 1   
    51    25    68 1   
    52    25    69 1   
    53    26    27 1   
    54    26    77 1   
    55    26    78 1   
    56    27    28 1   
    57    27    79 1   
    58    27    80 1   
    59    28    81 1   
    60    28    82 1   
    61    28    83 1   
    62    29    30 1   
    63    29    31 2   
    64    31    32 1   
    65    32    84 1   
    66    32    85 1   
    67    32    86 1   
    68    33    34 ar  
    69    33    65 1   
    70    34    35 ar  
    71    34    87 1   
    72    35    36 ar  
    73    35    37 1   
    74    36    64 1   
    75    37    38 2   
    76    37    39 1   
    77    39    40 1   
    78    39    88 1   
    79    40    41 2   
    80    40    42 2   
    81    40    43 1   
    82    43    44 ar  
    83    43    53 ar  
    84    44    45 ar  
    85    44    89 1   
    86    45    46 ar  
    87    45    51 ar  
    88    46    47 ar  
    89    46    91 1   
    90    47    48 1   
    91    47    49 ar  
    92    49    50 ar  
    93    49    92 1   
    94    50    51 ar  
    95    50    93 1   
    96    51    52 ar  
    97    52    53 ar  
    98    52    94 1   
    99    53    90 1   
@<TRIPOS>SUBSTRUCTURE
     1 398         1 TEMP              0 ****  ****    0 ROOT
