@<TRIPOS>MOLECULE
39A
   22    23     1     0     0
SMALL
No Charge or Current Charge


@<TRIPOS>ATOM
      1 N6          -3.0100     0.8530     0.1190 nv         1 39A      -0.510700
      2 C6          -1.8630     0.1450     0.0960 cc         1 39A       0.553300
      3 C5          -0.5960     0.7770     0.0360 cc         1 39A       0.079700
      4 N7          -0.2450     2.1050    -0.0100 nc         1 39A      -0.605000
      5 C4           0.4790    -0.0100     0.0170 cd         1 39A       0.219000
      6 N9           1.6070     0.7840    -0.0440 na         1 39A      -0.165500
      7 C8           1.0980     2.0920    -0.0580 cd         1 39A       0.468400
      8 C9M          3.0340     0.4150    -0.0880 c3         1 39A       0.047900
      9 N3           0.4130    -1.4100     0.0500 na         1 39A      -0.683400
     10 C3M          1.5920    -2.3150     0.0290 c3         1 39A       0.185100
     11 C2          -0.9000    -1.9580     0.1070 cd         1 39A       0.725100
     12 N1          -2.0160    -1.2050     0.1290 nc         1 39A      -0.750000
     13 HN61        -2.9690     1.8450    -0.0650 hn         1 39A       0.383500
     14 HN62        -3.8810     0.3620    -0.0150 hn         1 39A       0.383500
     15 H8           1.7480     2.9580    -0.1030 h5         1 39A       0.094100
     16 H9M1         3.3030    -0.1470     0.8140 h1         1 39A       0.078700
     17 H9M2         3.2370    -0.1890    -0.9800 h1         1 39A       0.078700
     18 H9M3         3.6520     1.3200    -0.1320 h1         1 39A       0.078700
     19 H3M1         2.1700    -2.1680    -0.8930 h1         1 39A       0.082033
     20 H3M2         2.2340    -2.1250     0.8980 h1         1 39A       0.082033
     21 H3M3         1.2790    -3.3670     0.0660 h1         1 39A       0.082033
     22 H2          -0.9740    -3.0400     0.1330 h5         1 39A       0.092800
@<TRIPOS>BOND
     1     1     2 2   
     2     1    13 1   
     3     1    14 1   
     4     2     3 1   
     5     2    12 1   
     6     3     4 1   
     7     3     5 2   
     8     4     7 2   
     9     5     6 1   
    10     5     9 1   
    11     6     7 1   
    12     6     8 1   
    13     7    15 1   
    14     8    16 1   
    15     8    17 1   
    16     8    18 1   
    17     9    10 1   
    18     9    11 1   
    19    10    19 1   
    20    10    20 1   
    21    10    21 1   
    22    11    12 2   
    23    11    22 1   
@<TRIPOS>SUBSTRUCTURE
     1 39A         1 TEMP              0 ****  ****    0 ROOT
