@<TRIPOS>MOLECULE
39A
   22    23     1     0     0
SMALL
bcc


@<TRIPOS>ATOM
      1 N6          -2.9830     0.8460     0.0600 nv         1 39A      -0.410100
      2 C6          -1.8650     0.1550     0.0500 cc         1 39A       0.553300
      3 C5          -0.5900     0.7530     0.0060 cc         1 39A       0.145000
      4 N7          -0.2150     2.0620    -0.0350 nc         1 39A      -0.605000
      5 C4           0.5240    -0.0660    -0.0020 cd         1 39A       0.066000
      6 N9           1.5960     0.7530    -0.0510 na         1 39A      -0.186900
      7 C8           1.0810     2.0230    -0.0670 cd         1 39A       0.468400
      8 C9M          3.0170     0.4450    -0.0720 c3         1 39A       0.018600
      9 N3           0.4170    -1.4190     0.0350 na         1 39A      -0.545000
     10 C3M          1.5600    -2.3290     0.0350 c3         1 39A       0.185100
     11 C2          -0.8400    -1.8970     0.0740 cd         1 39A       0.725100
     12 N1          -1.9290    -1.1920     0.0820 nc         1 39A      -0.750000
     13 HN61        -2.9740     1.8530     0.0360 hn         1 39A       0.333200
     14 HN62        -3.8750     0.3780     0.0900 hn         1 39A       0.333200
     15 H8           1.7380     2.8790    -0.1050 h5         1 39A       0.094100
     16 H9M1         3.3240    -0.0250     0.8580 h1         1 39A       0.078700
     17 H9M2         3.2630    -0.1920    -0.9150 h1         1 39A       0.078700
     18 H9M3         3.5580     1.3800    -0.1800 h1         1 39A       0.078700
     19 H3M1         2.1420    -2.2070    -0.8740 h1         1 39A       0.082033
     20 H3M2         2.1810    -2.1580     0.9090 h1         1 39A       0.082033
     21 H3M3         1.1850    -3.3470     0.0710 h1         1 39A       0.082033
     22 H2          -0.9230    -2.9760     0.1020 h5         1 39A       0.092800
@<TRIPOS>BOND
     1     1     2 2   
     2     1    13 1   
     3     1    14 1   
     4     2     3 1   
     5     2    12 1   
     6     3     4 1   
     7     3     5 2   
     8     4     7 2   
     9     5     6 1   
    10     5     9 1   
    11     6     7 1   
    12     6     8 1   
    13     7    15 1   
    14     8    16 1   
    15     8    17 1   
    16     8    18 1   
    17     9    10 1   
    18     9    11 1   
    19    10    19 1   
    20    10    20 1   
    21    10    21 1   
    22    11    12 2   
    23    11    22 1   
@<TRIPOS>SUBSTRUCTURE
     1 39A         1 TEMP              0 ****  ****    0 ROOT
