@<TRIPOS>MOLECULE
39C
   32    32     1     0     0
SMALL
abcg2


@<TRIPOS>ATOM
      1 N22          0.3460     1.9920    -0.9520 n8         1 39C      -0.980200
      2 C8          -0.2470     0.7600    -0.4950 c3         1 39C       0.070500
      3 C9          -1.7280     0.8500    -0.1380 c          1 39C       0.532100
      4 O20         -2.2260     1.8940     0.2190 o          1 39C      -0.526100
      5 C10         -2.5290    -0.4250    -0.2690 c3         1 39C      -0.166700
      6 C11         -3.0760    -0.4920    -1.7010 c3         1 39C      -0.081100
      7 C12         -3.6310    -0.5010     0.7770 c3         1 39C       0.172600
      8 O13         -4.2780    -1.7460     0.6500 oh         1 39C      -0.664000
      9 C7           0.4860     0.2410     0.7580 c3         1 39C      -0.022100
     10 C6           1.9150    -0.1240     0.4750 ca         1 39C      -0.071300
     11 C5           2.2350    -1.3940    -0.0010 ca         1 39C      -0.097000
     12 C4           3.5500    -1.7390    -0.2810 ca         1 39C      -0.111000
     13 C3           4.5680    -0.8150    -0.0860 ca         1 39C      -0.109000
     14 C2           4.2610     0.4540     0.3890 ca         1 39C      -0.111000
     15 C1           2.9430     0.7950     0.6630 ca         1 39C      -0.097000
     16 H28         -0.1250     2.3110    -1.7900 hn         1 39C       0.405500
     17 H29         -0.1370     0.0070    -1.2840 h1         1 39C       0.080700
     18 H35         -3.8050     0.3000    -1.8760 hc         1 39C       0.044700
     19 H36         -2.2810    -0.3890    -2.4400 hc         1 39C       0.044700
     20 H37         -3.5640    -1.4490    -1.8770 hc         1 39C       0.044700
     21 H38         -3.1930    -0.3810     1.7770 h1         1 39C       0.030200
     22 H39         -4.3270     0.3330     0.6300 h1         1 39C       0.030200
     23 H40         -5.0150    -1.7640     1.2670 ho         1 39C       0.447000
     24 H45          0.4380     1.0120     1.5330 hc         1 39C       0.051700
     25 H46         -0.0410    -0.6310     1.1540 hc         1 39C       0.051700
     26 H47          1.4480    -2.1250    -0.1470 ha         1 39C       0.109500
     27 H48          3.7820    -2.7320    -0.6450 ha         1 39C       0.111500
     28 H49          5.5950    -1.0830    -0.2970 ha         1 39C       0.111000
     29 H50          5.0490     1.1790     0.5470 ha         1 39C       0.111500
     30 H51          2.7110     1.7850     1.0370 ha         1 39C       0.109500
     31 H2           0.2110     2.7190    -0.2600 hn         1 39C       0.405500
     32 H32         -1.8490    -1.2730    -0.1310 hc         1 39C       0.073700
@<TRIPOS>BOND
     1     1     2 1   
     2     1    16 1   
     3     1    31 1   
     4     2     3 1   
     5     2     9 1   
     6     2    17 1   
     7     3     4 2   
     8     3     5 1   
     9     5     6 1   
    10     5     7 1   
    11     5    32 1   
    12     6    18 1   
    13     6    19 1   
    14     6    20 1   
    15     7     8 1   
    16     7    21 1   
    17     7    22 1   
    18     8    23 1   
    19     9    10 1   
    20     9    24 1   
    21     9    25 1   
    22    10    11 ar  
    23    10    15 ar  
    24    11    12 ar  
    25    11    26 1   
    26    12    13 ar  
    27    12    27 1   
    28    13    14 ar  
    29    13    28 1   
    30    14    15 ar  
    31    14    29 1   
    32    15    30 1   
@<TRIPOS>SUBSTRUCTURE
     1 39C         1 TEMP              0 ****  ****    0 ROOT
