@<TRIPOS>MOLECULE
39C
   32    32     1     0     0
SMALL
No Charge or Current Charge


@<TRIPOS>ATOM
      1 N22          0.4670     2.0310    -1.1760 n8         1 39C      -0.980200
      2 C8          -0.2280     0.7890    -0.6800 c3         1 39C       0.070500
      3 C9          -1.7850     0.9190    -0.5090 c          1 39C       0.532100
      4 O20         -2.3370     2.0120    -0.4230 o          1 39C      -0.526100
      5 C10         -2.5960    -0.3920    -0.4830 c3         1 39C      -0.166700
      6 C11         -3.5520    -0.4790    -1.7020 c3         1 39C      -0.081100
      7 C12         -3.3240    -0.5290     0.8720 c3         1 39C       0.172600
      8 O13         -3.8750    -1.8440     0.9990 oh         1 39C      -0.664000
      9 C7           0.4300     0.2740     0.6310 c3         1 39C      -0.022100
     10 C6           1.8980    -0.1170     0.4710 ca         1 39C      -0.071300
     11 C5           2.2460    -1.2810    -0.2440 ca         1 39C      -0.097000
     12 C4           3.5950    -1.6520    -0.3830 ca         1 39C      -0.111000
     13 C3           4.6050    -0.8640     0.1930 ca         1 39C      -0.109000
     14 C2           4.2650     0.2950     0.9100 ca         1 39C      -0.111000
     15 C1           2.9160     0.6670     1.0500 ca         1 39C      -0.097000
     16 H28          0.0410     2.3310    -2.0620 hn         1 39C       0.405500
     17 H29         -0.0830     0.0110    -1.4430 h1         1 39C       0.080700
     18 H35         -4.3100     0.3140    -1.6630 hc         1 39C       0.044700
     19 H36         -2.9930    -0.3720    -2.6390 hc         1 39C       0.044700
     20 H37         -4.0700    -1.4450    -1.7280 hc         1 39C       0.044700
     21 H38         -2.6090    -0.3440     1.6860 h1         1 39C       0.030200
     22 H39         -4.1150     0.2300     0.9430 h1         1 39C       0.030200
     23 H40         -4.3420    -1.8780     1.8640 ho         1 39C       0.447000
     24 H45          0.3170     1.0370     1.4120 hc         1 39C       0.051700
     25 H46         -0.1240    -0.6010     0.9940 hc         1 39C       0.051700
     26 H47          1.4710    -1.9000    -0.6900 ha         1 39C       0.109500
     27 H48          3.8560    -2.5520    -0.9370 ha         1 39C       0.111500
     28 H49          5.6490    -1.1510     0.0850 ha         1 39C       0.111000
     29 H50          5.0460     0.9060     1.3580 ha         1 39C       0.111500
     30 H51          2.6630     1.5670     1.6060 ha         1 39C       0.109500
     31 H2           0.2500     2.8110    -0.5430 hn         1 39C       0.405500
     32 H32         -1.8860    -1.2240    -0.5650 hc         1 39C       0.073700
@<TRIPOS>BOND
     1     1     2 1   
     2     1    16 1   
     3     1    31 1   
     4     2     3 1   
     5     2     9 1   
     6     2    17 1   
     7     3     4 2   
     8     3     5 1   
     9     5     6 1   
    10     5     7 1   
    11     5    32 1   
    12     6    18 1   
    13     6    19 1   
    14     6    20 1   
    15     7     8 1   
    16     7    21 1   
    17     7    22 1   
    18     8    23 1   
    19     9    10 1   
    20     9    24 1   
    21     9    25 1   
    22    10    11 ar  
    23    10    15 ar  
    24    11    12 ar  
    25    11    26 1   
    26    12    13 ar  
    27    12    27 1   
    28    13    14 ar  
    29    13    28 1   
    30    14    15 ar  
    31    14    29 1   
    32    15    30 1   
@<TRIPOS>SUBSTRUCTURE
     1 39C         1 TEMP              0 ****  ****    0 ROOT
