@<TRIPOS>MOLECULE
39D
   64    67     1     0     0
SMALL
abcg2


@<TRIPOS>ATOM
      1 C18          4.7660    -1.1600     1.7990 c6         1 39D      -0.064900
      2 C17          3.7170    -1.0960     0.6950 c6         1 39D      -0.141700
      3 C15          2.5640    -0.1790     1.0670 c          1 39D       0.604100
      4 C19          5.9230    -2.0720     1.4090 c6         1 39D      -0.073400
      5 C20          6.5830    -1.6510     0.0980 c6         1 39D      -0.063700
      6 C21          5.5290    -1.5720    -1.0040 c6         1 39D      -0.073400
      7 C22          4.3650    -0.6610    -0.6280 c6         1 39D      -0.064900
      8 C23          7.7220    -2.6000    -0.2550 c3         1 39D       0.153800
      9 C11         -0.9240    -0.2120     0.4100 cc         1 39D       0.388800
     10 C12          0.3390     0.5950     0.3340 c3         1 39D       0.084400
     11 C27         -6.6540    -1.6060     0.3590 ca         1 39D      -0.072500
     12 C1           1.4800     2.5100    -0.8170 ca         1 39D      -0.085300
     13 C2           2.5640     2.2810    -1.6580 ca         1 39D      -0.102000
     14 C3           3.6840     3.1020    -1.6170 ca         1 39D      -0.107500
     15 C4           3.7340     4.1680    -0.7290 ca         1 39D      -0.106000
     16 C5           2.6550     4.4090     0.1130 ca         1 39D      -0.107500
     17 C6           1.5400     3.5850     0.0680 ca         1 39D      -0.102000
     18 N7          -2.1270     0.2260     0.1540 nd         1 39D      -0.672000
     19 C8          -2.9790    -0.8150     0.4120 cd         1 39D       0.288500
     20 C9          -2.2560    -1.9030     0.8320 cc         1 39D      -0.202000
     21 N10         -0.9580    -1.4980     0.8220 na         1 39D      -0.285500
     22 N13          1.4860    -0.2750     0.2510 ns         1 39D      -0.525900
     23 C14          0.2860     1.6010    -0.8250 c3         1 39D      -0.041100
     24 O16          2.5930     0.5710     2.0270 o          1 39D      -0.580100
     25 N24          8.4530    -2.1750    -1.4400 n8         1 39D      -0.995200
     26 C25         -4.4220    -0.6840     0.2470 ca         1 39D      -0.075500
     27 C26         -5.2880    -1.7500     0.5050 ca         1 39D      -0.110000
     28 C28         -7.2090    -0.3950    -0.0540 ca         1 39D      -0.154600
     29 C29         -6.3470     0.6690    -0.3120 ca         1 39D      -0.072500
     30 C30         -4.9780     0.5280    -0.1650 ca         1 39D      -0.110000
     31 C31         -8.6970    -0.3120    -0.1790 c          1 39D       0.619700
     32 O32         -9.4100    -1.2400     0.1850 o          1 39D      -0.613100
     33 N33         -9.2070     0.8150    -0.6970 nt         1 39D      -0.605000
     34 H46          5.1480    -0.1550     1.9980 hc         1 39D       0.052700
     35 H47          4.3170    -1.5130     2.7300 hc         1 39D       0.052700
     36 H45          3.3030    -2.1020     0.5460 hc         1 39D       0.052700
     37 H49          6.6660    -2.0810     2.2120 hc         1 39D       0.039700
     38 H48          5.5600    -3.1030     1.3140 hc         1 39D       0.039700
     39 H50          7.0080    -0.6480     0.2340 hc         1 39D       0.067700
     40 H51          5.9690    -1.2060    -1.9360 hc         1 39D       0.039700
     41 H52          5.1500    -2.5800    -1.2120 hc         1 39D       0.039700
     42 H53          3.6330    -0.6570    -1.4380 hc         1 39D       0.052700
     43 H54          4.7210     0.3700    -0.5300 hc         1 39D       0.052700
     44 H55          8.4270    -2.6200     0.5820 h1         1 39D       0.026700
     45 H56          7.3130    -3.6200    -0.3350 h1         1 39D       0.026700
     46 H41          0.4370     1.1550     1.2680 h1         1 39D       0.106700
     47 H34          2.5330     1.4520    -2.3550 ha         1 39D       0.109000
     48 H35          4.5180     2.9080    -2.2800 ha         1 39D       0.112500
     49 H36          4.6040     4.8100    -0.6950 ha         1 39D       0.113000
     50 H37          2.6820     5.2400     0.8060 ha         1 39D       0.112500
     51 H38          0.7040     3.7800     0.7310 ha         1 39D       0.109000
     52 H39         -2.5380    -2.9010     1.1220 h4         1 39D       0.162000
     53 H40         -0.1600    -2.0620     1.0750 hn         1 39D       0.359000
     54 H42          1.5620    -0.8590    -0.5690 hn         1 39D       0.308500
     55 H43          0.2230     1.0560    -1.7700 hc         1 39D       0.067200
     56 H44         -0.6350     2.1780    -0.7300 hc         1 39D       0.067200
     57 H57          9.2540    -2.7790    -1.5710 hn         1 39D       0.391500
     58 H58          7.8800    -2.3130    -2.2640 hn         1 39D       0.391500
     59 H59         -4.8960    -2.7060     0.8290 ha         1 39D       0.123000
     60 H61         -6.7170     1.6370    -0.6220 ha         1 39D       0.120500
     61 H62         -4.3310     1.3710    -0.3680 ha         1 39D       0.123000
     62 H64         -8.6470     1.5590    -1.0710 hn         1 39D       0.313500
     63 H63        -10.2040     0.9030    -0.8020 hn         1 39D       0.313500
     64 H60         -7.3000    -2.4480     0.5690 ha         1 39D       0.120500
@<TRIPOS>BOND
     1     1     2 1   
     2     1     4 1   
     3     1    34 1   
     4     1    35 1   
     5     2     3 1   
     6     2     7 1   
     7     2    36 1   
     8     3    22 1   
     9     3    24 2   
    10     4     5 1   
    11     4    37 1   
    12     4    38 1   
    13     5     6 1   
    14     5     8 1   
    15     5    39 1   
    16     6     7 1   
    17     6    40 1   
    18     6    41 1   
    19     7    42 1   
    20     7    43 1   
    21     8    25 1   
    22     8    44 1   
    23     8    45 1   
    24     9    10 1   
    25     9    18 2   
    26     9    21 1   
    27    10    22 1   
    28    10    23 1   
    29    10    46 1   
    30    11    27 ar  
    31    11    28 ar  
    32    11    64 1   
    33    12    13 ar  
    34    12    17 ar  
    35    12    23 1   
    36    13    14 ar  
    37    13    47 1   
    38    14    15 ar  
    39    14    48 1   
    40    15    16 ar  
    41    15    49 1   
    42    16    17 ar  
    43    16    50 1   
    44    17    51 1   
    45    18    19 1   
    46    19    20 2   
    47    19    26 1   
    48    20    21 1   
    49    20    52 1   
    50    21    53 1   
    51    22    54 1   
    52    23    55 1   
    53    23    56 1   
    54    25    57 1   
    55    25    58 1   
    56    26    27 ar  
    57    26    30 ar  
    58    27    59 1   
    59    28    29 ar  
    60    28    31 1   
    61    29    30 ar  
    62    29    60 1   
    63    30    61 1   
    64    31    32 2   
    65    31    33 1   
    66    33    62 1   
    67    33    63 1   
@<TRIPOS>SUBSTRUCTURE
     1 39D         1 TEMP              0 ****  ****    0 ROOT
