@<TRIPOS>MOLECULE
39D
   64    67     1     0     0
SMALL
No Charge or Current Charge


@<TRIPOS>ATOM
      1 C18          4.0760    -1.9400     1.4550 c6         1 39D      -0.064900
      2 C17          3.7630    -0.8130     0.4370 c6         1 39D      -0.141700
      3 C15          2.4470    -0.0670     0.7310 c          1 39D       0.604100
      4 C19          5.3700    -2.6980     1.0650 c6         1 39D      -0.073400
      5 C20          6.5770    -1.7320     0.8860 c6         1 39D      -0.063700
      6 C21          6.2410    -0.6400    -0.1760 c6         1 39D      -0.073400
      7 C22          4.9580     0.1460     0.1940 c6         1 39D      -0.064900
      8 C23          7.8680    -2.5290     0.5330 c3         1 39D       0.153800
      9 C11         -1.0530    -0.2190    -0.1890 cc         1 39D       0.388800
     10 C12          0.2200     0.6090    -0.2610 c3         1 39D       0.084400
     11 C27         -6.8070    -1.7000     0.3960 ca         1 39D      -0.072500
     12 C1           1.5500     2.3360    -1.6100 ca         1 39D      -0.085300
     13 C2           2.4560     2.0510    -2.6500 ca         1 39D      -0.102000
     14 C3           3.6720     2.7510    -2.7440 ca         1 39D      -0.107500
     15 C4           3.9890     3.7390    -1.7980 ca         1 39D      -0.106000
     16 C5           3.0890     4.0290    -0.7590 ca         1 39D      -0.107500
     17 C6           1.8730     3.3300    -0.6660 ca         1 39D      -0.102000
     18 N7          -2.2660     0.2680     0.0240 nd         1 39D      -0.672000
     19 C8          -3.1240    -0.8160     0.0160 cd         1 39D       0.288500
     20 C9          -2.4230    -1.9770    -0.2010 cc         1 39D      -0.202000
     21 N10         -1.1050    -1.5850    -0.3260 na         1 39D      -0.285500
     22 N13          1.4630    -0.1930    -0.2260 ns         1 39D      -0.525900
     23 C14          0.2420     1.5550    -1.4870 c3         1 39D      -0.041100
     24 O16          2.2890     0.5930     1.7480 o          1 39D      -0.580100
     25 N24          9.0920    -1.7050     0.4910 n8         1 39D      -0.995200
     26 C25         -4.5850    -0.6860     0.2190 ca         1 39D      -0.075500
     27 C26         -5.4200    -1.8220     0.2040 ca         1 39D      -0.110000
     28 C28         -7.4010    -0.4370     0.6100 ca         1 39D      -0.154600
     29 C29         -6.5650     0.7030     0.6260 ca         1 39D      -0.072500
     30 C30         -5.1780     0.5770     0.4330 ca         1 39D      -0.110000
     31 C31         -8.8990    -0.3390     0.8140 c          1 39D       0.619700
     32 O32         -9.6330    -1.3140     0.8030 o          1 39D      -0.613100
     33 N33         -9.4410     0.8820     1.0170 nt         1 39D      -0.605000
     34 H46          4.1890    -1.5110     2.4600 hc         1 39D       0.052700
     35 H47          3.2340    -2.6440     1.5090 hc         1 39D       0.052700
     36 H45          3.5980    -1.3210    -0.5240 hc         1 39D       0.052700
     37 H49          5.5990    -3.4450     1.8380 hc         1 39D       0.039700
     38 H48          5.2000    -3.2580     0.1350 hc         1 39D       0.039700
     39 H50          6.7700    -1.2390     1.8490 hc         1 39D       0.067700
     40 H51          7.0740     0.0680    -0.2750 hc         1 39D       0.039700
     41 H52          6.1120    -1.1070    -1.1620 hc         1 39D       0.039700
     42 H53          4.7130     0.8570    -0.6060 hc         1 39D       0.052700
     43 H54          5.1410     0.7450     1.0970 hc         1 39D       0.052700
     44 H55          8.0160    -3.3180     1.2830 h1         1 39D       0.026700
     45 H56          7.7370    -3.0110    -0.4460 h1         1 39D       0.026700
     46 H41          0.2040     1.2510     0.6290 h1         1 39D       0.106700
     47 H34          2.2250     1.2820    -3.3840 ha         1 39D       0.109000
     48 H35          4.3690     2.5240    -3.5480 ha         1 39D       0.112500
     49 H36          4.9310     4.2790    -1.8690 ha         1 39D       0.113000
     50 H37          3.3340     4.7930    -0.0240 ha         1 39D       0.112500
     51 H38          1.1850     3.5570     0.1450 ha         1 39D       0.109000
     52 H39         -2.7480    -3.0080    -0.2690 h4         1 39D       0.162000
     53 H40         -0.3030    -2.1840    -0.4830 hn         1 39D       0.359000
     54 H42          1.7060    -0.7360    -1.0460 hn         1 39D       0.308500
     55 H43          0.0680     0.9620    -2.3930 hc         1 39D       0.067200
     56 H44         -0.6010     2.2520    -1.4160 hc         1 39D       0.067200
     57 H57          9.8780    -2.2890     0.1800 hn         1 39D       0.391500
     58 H58          8.9960    -1.0100    -0.2580 hn         1 39D       0.391500
     59 H59         -5.0020    -2.8130     0.0420 ha         1 39D       0.123000
     60 H61         -6.9730     1.6980     0.7860 ha         1 39D       0.120500
     61 H62         -4.5630     1.4740     0.4510 ha         1 39D       0.123000
     62 H64         -8.8560     1.7020     1.0310 hn         1 39D       0.313500
     63 H63        -10.4370     0.9590     1.1540 hn         1 39D       0.313500
     64 H60         -7.4210    -2.5980     0.3780 ha         1 39D       0.120500
@<TRIPOS>BOND
     1     1     2 1   
     2     1     4 1   
     3     1    34 1   
     4     1    35 1   
     5     2     3 1   
     6     2     7 1   
     7     2    36 1   
     8     3    22 1   
     9     3    24 2   
    10     4     5 1   
    11     4    37 1   
    12     4    38 1   
    13     5     6 1   
    14     5     8 1   
    15     5    39 1   
    16     6     7 1   
    17     6    40 1   
    18     6    41 1   
    19     7    42 1   
    20     7    43 1   
    21     8    25 1   
    22     8    44 1   
    23     8    45 1   
    24     9    10 1   
    25     9    18 2   
    26     9    21 1   
    27    10    22 1   
    28    10    23 1   
    29    10    46 1   
    30    11    27 ar  
    31    11    28 ar  
    32    11    64 1   
    33    12    13 ar  
    34    12    17 ar  
    35    12    23 1   
    36    13    14 ar  
    37    13    47 1   
    38    14    15 ar  
    39    14    48 1   
    40    15    16 ar  
    41    15    49 1   
    42    16    17 ar  
    43    16    50 1   
    44    17    51 1   
    45    18    19 1   
    46    19    20 2   
    47    19    26 1   
    48    20    21 1   
    49    20    52 1   
    50    21    53 1   
    51    22    54 1   
    52    23    55 1   
    53    23    56 1   
    54    25    57 1   
    55    25    58 1   
    56    26    27 ar  
    57    26    30 ar  
    58    27    59 1   
    59    28    29 ar  
    60    28    31 1   
    61    29    30 ar  
    62    29    60 1   
    63    30    61 1   
    64    31    32 2   
    65    31    33 1   
    66    33    62 1   
    67    33    63 1   
@<TRIPOS>SUBSTRUCTURE
     1 39D         1 TEMP              0 ****  ****    0 ROOT
