@<TRIPOS>MOLECULE
39F
   65    69     1     0     0
SMALL
bcc


@<TRIPOS>ATOM
      1 C13          2.6550     0.6760     0.2520 cc         1 39F       0.398800
      2 C18         -4.7290     0.5020    -0.5500 c6         1 39F      -0.064900
      3 C17         -2.8530     0.0200     1.0670 c          1 39F       0.671100
      4 C16          0.5910     0.0610     0.2950 cd         1 39F       0.400800
      5 C15          1.9160     1.7500     0.6800 cd         1 39F      -0.117200
      6 C19         -5.0350     0.9680     1.8970 c6         1 39F      -0.064900
      7 C20         -5.9140     1.4090    -0.8670 c6         1 39F      -0.073400
      8 C21         -6.2120     1.8780     1.5680 c6         1 39F      -0.073400
      9 C22         -4.0310     0.9260     0.7510 c6         1 39F      -0.141700
     10 C23         -6.9220     1.4700     0.2790 c6         1 39F      -0.064700
     11 C24         -0.6360    -1.7240    -0.9610 c3         1 39F      -0.041100
     12 C11         -1.8470    -2.6120    -0.9720 ca         1 39F      -0.085300
     13 C12          6.0340    -0.8990    -0.0330 ca         1 39F      -0.036000
     14 C1          -4.1350    -4.2240    -0.9230 ca         1 39F      -0.125000
     15 C2          -3.0720    -4.4910    -0.0680 ca         1 39F      -0.126500
     16 C3          -4.0530    -3.1540    -1.8030 ca         1 39F      -0.126500
     17 C4           6.2720     1.5190    -0.4190 ca         1 39F      -0.063000
     18 C5           4.9250     1.6510    -0.2310 ca         1 39F      -0.154000
     19 C6          -1.9400    -3.6900    -0.0940 ca         1 39F      -0.120500
     20 C7          -2.9150    -2.3570    -1.8260 ca         1 39F      -0.120500
     21 C8           4.6420    -0.7400     0.1540 ca         1 39F      -0.079000
     22 C9           6.8430     0.2380    -0.3150 ca         1 39F      -0.201000
     23 C10          4.0980     0.5190     0.0640 ca         1 39F      -0.092500
     24 C14          8.1390    -0.2840    -0.4350 cc         1 39F       0.131900
     25 C25         -8.0780     2.4200    -0.0160 c3         1 39F       0.153800
     26 C26         -0.6690    -0.7510     0.2260 c3         1 39F       0.083400
     27 N27          8.0070    -1.5970    -0.2270 na         1 39F       0.012800
     28 N28          0.6150     1.3460     0.7030 na         1 39F      -0.287900
     29 N29          6.7490    -2.0180     0.0210 nc         1 39F      -0.289400
     30 N30          1.7930    -0.3650     0.0210 nc         1 39F      -0.671000
     31 N31          9.3140     0.3240    -0.7690 nv         1 39F      -0.804600
     32 N32         -8.8550     2.0020    -1.1750 n8         1 39F      -0.884800
     33 N33         -1.8220     0.1130     0.1910 ns         1 39F      -0.592900
     34 O34         -2.8230    -0.7170     2.0370 o          1 39F      -0.581100
     35 CL1          2.3410     3.3180     1.1880 cl         1 39F      -0.041400
     36 H2          -4.0300     0.5160    -1.3890 hc         1 39F       0.052700
     37 H3          -4.5500     1.3100     2.8140 hc         1 39F       0.052700
     38 H4          -5.4030    -0.0430     2.0960 hc         1 39F       0.052700
     39 H5          -5.5490     2.4220    -1.0770 hc         1 39F       0.039200
     40 H6          -6.3900     1.0510    -1.7820 hc         1 39F       0.039200
     41 H7          -6.9210     1.8720     2.4010 hc         1 39F       0.039200
     42 H8          -5.8580     2.9120     1.4720 hc         1 39F       0.039200
     43 H9          -3.6310     1.9380     0.5980 hc         1 39F       0.053700
     44 H10         -7.3420     0.4650     0.4200 hc         1 39F       0.067700
     45 H11          0.2760    -2.3200    -0.8890 hc         1 39F       0.069700
     46 H12         -0.5710    -1.1540    -1.8910 hc         1 39F       0.069700
     47 H13         -5.0190    -4.8480    -0.9040 ha         1 39F       0.131000
     48 H14         -3.1260    -5.3260     0.6190 ha         1 39F       0.130500
     49 H15         -4.8750    -2.9380    -2.4740 ha         1 39F       0.130500
     50 H16          6.8750     2.3880    -0.6560 ha         1 39F       0.124000
     51 H17          4.4760     2.6280    -0.3360 ha         1 39F       0.131000
     52 H18         -1.1180    -3.9060     0.5790 ha         1 39F       0.127500
     53 H19         -2.8590    -1.5240    -2.5160 ha         1 39F       0.127500
     54 H20          4.0180    -1.5970     0.3690 ha         1 39F       0.160000
     55 H21         -8.7470     2.4270     0.8490 h1         1 39F       0.027200
     56 H22         -7.6760     3.4420    -0.1020 h1         1 39F       0.027200
     57 H23         -0.7430    -1.3350     1.1470 h1         1 39F       0.107700
     58 H24          8.7530    -2.2750    -0.2420 hn         1 39F       0.314700
     59 H25         -0.1820     1.9090     0.9610 hn         1 39F       0.316700
     60 H27          9.3480     1.3100    -0.5640 hn         1 39F       0.402300
     61 H28         10.1570    -0.1420    -0.4690 hn         1 39F       0.402300
     62 H29         -9.6590     2.6090    -1.2720 hn         1 39F       0.336300
     63 H30         -8.3130     2.1420    -2.0180 hn         1 39F       0.336300
     64 H32         -1.9500     0.6790    -0.6360 hn         1 39F       0.309500
     65 H1          -5.0700    -0.5330    -0.4520 hc         1 39F       0.052700
@<TRIPOS>BOND
     1     1     5 2   
     2     1    23 1   
     3     1    30 1   
     4     2     7 1   
     5     2     9 1   
     6     2    36 1   
     7     2    65 1   
     8     3     9 1   
     9     3    33 1   
    10     3    34 2   
    11     4    26 1   
    12     4    28 1   
    13     4    30 2   
    14     5    28 1   
    15     5    35 1   
    16     6     8 1   
    17     6     9 1   
    18     6    37 1   
    19     6    38 1   
    20     7    10 1   
    21     7    39 1   
    22     7    40 1   
    23     8    10 1   
    24     8    41 1   
    25     8    42 1   
    26     9    43 1   
    27    10    25 1   
    28    10    44 1   
    29    11    12 1   
    30    11    26 1   
    31    11    45 1   
    32    11    46 1   
    33    12    19 ar  
    34    12    20 ar  
    35    13    21 ar  
    36    13    22 ar  
    37    13    29 2   
    38    14    15 ar  
    39    14    16 ar  
    40    14    47 1   
    41    15    19 ar  
    42    15    48 1   
    43    16    20 ar  
    44    16    49 1   
    45    17    18 ar  
    46    17    22 ar  
    47    17    50 1   
    48    18    23 ar  
    49    18    51 1   
    50    19    52 1   
    51    20    53 1   
    52    21    23 ar  
    53    21    54 1   
    54    22    24 2   
    55    24    27 1   
    56    24    31 1   
    57    25    32 1   
    58    25    55 1   
    59    25    56 1   
    60    26    33 1   
    61    26    57 1   
    62    27    29 1   
    63    27    58 1   
    64    28    59 1   
    65    31    60 1   
    66    31    61 1   
    67    32    62 1   
    68    32    63 1   
    69    33    64 1   
@<TRIPOS>SUBSTRUCTURE
     1 39F         1 TEMP              0 ****  ****    0 ROOT
