@<TRIPOS>MOLECULE
39F
   65    69     1     0     0
SMALL
No Charge or Current Charge


@<TRIPOS>ATOM
      1 C13          2.7620     0.5960    -0.2310 cc         1 39F       0.333500
      2 C18         -5.2730    -0.3190     0.2600 c6         1 39F      -0.064900
      3 C17         -2.7370    -0.1330     0.6780 c          1 39F       0.604100
      4 C16          0.7050     0.0480    -0.3990 cd         1 39F       0.400800
      5 C15          2.0940     1.7870    -0.3860 cd         1 39F      -0.011000
      6 C19         -4.3200     1.7160     1.5500 c6         1 39F      -0.064900
      7 C20         -6.5690     0.4830    -0.0170 c6         1 39F      -0.073400
      8 C21         -5.6280     2.4920     1.2540 c6         1 39F      -0.073400
      9 C22         -4.0630     0.6270     0.4780 c6         1 39F      -0.141700
     10 C23         -6.8470     1.5360     1.0990 c6         1 39F      -0.064700
     11 C24         -0.6470    -1.6660    -1.7180 c3         1 39F      -0.041100
     12 C11         -1.9610    -2.4380    -1.8200 ca         1 39F      -0.085300
     13 C12          6.1030    -0.5940     1.0700 ca         1 39F      -0.036000
     14 C1          -4.4140    -3.8240    -1.9640 ca         1 39F      -0.107000
     15 C2          -3.4670    -4.1690    -0.9850 ca         1 39F      -0.108500
     16 C3          -4.1370    -2.7880    -2.8720 ca         1 39F      -0.108500
     17 C4           6.5150     1.1610    -0.5740 ca         1 39F      -0.045000
     18 C5           5.1240     1.2940    -0.7590 ca         1 39F      -0.136000
     19 C6          -2.2440    -3.4780    -0.9140 ca         1 39F      -0.102500
     20 C7          -2.9150    -2.0970    -2.8000 ca         1 39F      -0.102500
     21 C8           4.7170    -0.4690     0.8910 ca         1 39F      -0.061000
     22 C9           6.9570     0.2110     0.3540 ca         1 39F      -0.201000
     23 C10          4.2110     0.5020    -0.0100 ca         1 39F      -0.092500
     24 C14          8.2500    -0.1770     0.7680 cc         1 39F       0.131900
     25 C25         -8.1510     2.3490     0.8400 c3         1 39F       0.153800
     26 C26         -0.5690    -0.7810    -0.4500 c3         1 39F       0.083400
     27 N27          8.1130    -1.1860     1.7030 na         1 39F      -0.037500
     28 N28          0.7660     1.4290    -0.5030 na         1 39F      -0.287500
     29 N29          6.7600    -1.4890     1.9300 nc         1 39F      -0.289400
     30 N30          1.9110    -0.4740    -0.2140 nc         1 39F      -0.671000
     31 N31          9.4470     0.3280     0.3440 nv         1 39F      -0.915000
     32 N32         -9.3790     1.5300     0.8290 n8         1 39F      -0.995200
     33 N33         -1.8030     0.0240    -0.3230 ns         1 39F      -0.525900
     34 O34         -2.5310    -0.8300     1.6600 o          1 39F      -0.581100
     35 Cl1          2.6560     3.4300    -0.3510 cl         1 39F      -0.133000
     36 H2          -5.0710    -1.0010    -0.5780 hc         1 39F       0.052700
     37 H3          -3.4730     2.4160     1.5880 hc         1 39F       0.052700
     38 H4          -4.3850     1.2510     2.5440 hc         1 39F       0.052700
     39 H5          -6.4870     0.9860    -0.9910 hc         1 39F       0.039200
     40 H6          -7.4100    -0.2190    -0.1010 hc         1 39F       0.039200
     41 H7          -5.8150     3.2100     2.0640 hc         1 39F       0.039200
     42 H8          -5.5030     3.0850     0.3370 hc         1 39F       0.039200
     43 H9          -3.9440     1.1690    -0.4710 hc         1 39F       0.053700
     44 H10         -6.9950     1.0090     2.0520 hc         1 39F       0.067700
     45 H11          0.1970    -2.3680    -1.7180 hc         1 39F       0.069700
     46 H12         -0.5100    -1.0310    -2.6020 hc         1 39F       0.069700
     47 H13         -5.3610    -4.3570    -2.0180 ha         1 39F       0.113000
     48 H14         -3.6810    -4.9690    -0.2800 ha         1 39F       0.112500
     49 H15         -4.8700    -2.5190    -3.6290 ha         1 39F       0.112500
     50 H16          7.2160     1.7690    -1.1410 ha         1 39F       0.106000
     51 H17          4.7600     2.0030    -1.4980 ha         1 39F       0.113000
     52 H18         -1.5200    -3.7490    -0.1490 ha         1 39F       0.109500
     53 H19         -2.7150    -1.2920    -3.5040 ha         1 39F       0.109500
     54 H20          4.0380    -1.1100     1.4500 ha         1 39F       0.142000
     55 H21         -8.2580     3.1100     1.6260 h1         1 39F       0.027200
     56 H22         -8.0660     2.8660    -0.1260 h1         1 39F       0.027200
     57 H23         -0.5140    -1.4630     0.4080 h1         1 39F       0.107700
     58 H24          8.8570    -1.6750     2.1870 hn         1 39F       0.365000
     59 H25         -0.0250     2.0490    -0.6110 hn         1 39F       0.367000
     60 H27          9.4750     1.1100    -0.3090 hn         1 39F       0.457500
     61 H28         10.3290     0.0220     0.7520 hn         1 39F       0.457500
     62 H29        -10.1760     2.1270     0.5790 hn         1 39F       0.391500
     63 H30         -9.3230     0.8620     0.0520 hn         1 39F       0.391500
     64 H32         -2.0850     0.5960    -1.1110 hn         1 39F       0.309500
     65 H1          -5.4140    -0.9510     1.1480 hc         1 39F       0.052700
@<TRIPOS>BOND
     1     1     5 2   
     2     1    23 1   
     3     1    30 1   
     4     2     7 1   
     5     2     9 1   
     6     2    36 1   
     7     2    65 1   
     8     3     9 1   
     9     3    33 1   
    10     3    34 2   
    11     4    26 1   
    12     4    28 1   
    13     4    30 2   
    14     5    28 1   
    15     5    35 1   
    16     6     8 1   
    17     6     9 1   
    18     6    37 1   
    19     6    38 1   
    20     7    10 1   
    21     7    39 1   
    22     7    40 1   
    23     8    10 1   
    24     8    41 1   
    25     8    42 1   
    26     9    43 1   
    27    10    25 1   
    28    10    44 1   
    29    11    12 1   
    30    11    26 1   
    31    11    45 1   
    32    11    46 1   
    33    12    19 ar  
    34    12    20 ar  
    35    13    21 ar  
    36    13    22 ar  
    37    13    29 2   
    38    14    15 ar  
    39    14    16 ar  
    40    14    47 1   
    41    15    19 ar  
    42    15    48 1   
    43    16    20 ar  
    44    16    49 1   
    45    17    18 ar  
    46    17    22 ar  
    47    17    50 1   
    48    18    23 ar  
    49    18    51 1   
    50    19    52 1   
    51    20    53 1   
    52    21    23 ar  
    53    21    54 1   
    54    22    24 2   
    55    24    27 1   
    56    24    31 1   
    57    25    32 1   
    58    25    55 1   
    59    25    56 1   
    60    26    33 1   
    61    26    57 1   
    62    27    29 1   
    63    27    58 1   
    64    28    59 1   
    65    31    60 1   
    66    31    61 1   
    67    32    62 1   
    68    32    63 1   
    69    33    64 1   
@<TRIPOS>SUBSTRUCTURE
     1 39F         1 TEMP              0 ****  ****    0 ROOT
