@<TRIPOS>MOLECULE
39G
   56    58     1     0     0
SMALL
bcc


@<TRIPOS>ATOM
      1 C1          -3.0860     3.1630    -2.3580 c3         1 39G      -0.089100
      2 C2          -3.0810     1.6950    -1.9600 c3         1 39G      -0.068400
      3 C3          -2.7810     1.5160    -0.4690 c3         1 39G      -0.025100
      4 C9          -5.1740    -0.1400     0.3550 ca         1 39G      -0.000200
      5 C10         -5.5260     0.7590     1.3510 ca         1 39G      -0.110500
      6 C11         -6.8310     1.2250     1.4170 ca         1 39G      -0.122000
      7 C12         -7.7770     0.7820     0.5010 ca         1 39G      -0.116000
      8 C13         -7.4170    -0.1280    -0.4840 ca         1 39G      -0.122000
      9 C14         -6.1110    -0.5900    -0.5650 ca         1 39G      -0.110500
     10 C15         -0.2920    -0.5400    -0.3330 c          1 39G       0.726700
     11 C19          2.7200    -0.2840    -0.2060 ca         1 39G      -0.046000
     12 C20          4.0900    -0.3670    -0.4080 ca         1 39G      -0.286500
     13 C21          4.7500    -1.5860    -0.4220 ca         1 39G      -0.055000
     14 C22          4.0070    -2.7370    -0.2210 ca         1 39G      -0.129000
     15 C30          6.5260     0.7150     1.5590 c3         1 39G       0.168100
     16 C4          -2.7400     0.0820    -0.0690 cc         1 39G       0.012400
     17 C5          -1.6920    -0.8260    -0.0080 cd         1 39G      -0.365900
     18 C6          -2.2930    -2.0430     0.3800 cd         1 39G       0.330200
     19 N7          -3.5860    -1.9080     0.5390 nc         1 39G      -0.502800
     20 N8          -3.8400    -0.6180     0.2750 na         1 39G       0.167300
     21 O16          0.0390     0.4090    -1.0240 o          1 39G      -0.580100
     22 N17          0.6040    -1.4250     0.1940 ns         1 39G      -0.486100
     23 C18          1.9860    -1.4520    -0.0230 ca         1 39G       0.053600
     24 C23          2.6310    -2.6990    -0.0260 ca         1 39G      -0.069300
     25 O26          6.2220     0.8410    -1.3360 o          1 39G      -0.600800
     26 O27          4.1140     2.1720    -1.0410 o          1 39G      -0.600800
     27 N28          5.5010     1.5560     0.9500 n3         1 39G      -0.702500
     28 C29          4.4400     1.9370     1.8760 c3         1 39G       0.168100
     29 H1          -3.8460     3.7210    -1.8080 hc         1 39G       0.035700
     30 H2          -2.1210     3.6300    -2.1550 hc         1 39G       0.035700
     31 H3          -3.2950     3.2820    -3.4210 hc         1 39G       0.035700
     32 H4          -4.0480     1.2440    -2.1960 hc         1 39G       0.049200
     33 H5          -2.3320     1.1530    -2.5390 hc         1 39G       0.049200
     34 H6          -1.8190     1.9700    -0.2350 hc         1 39G       0.067200
     35 H7          -3.5300     2.0480     0.1210 hc         1 39G       0.067200
     36 H8          -4.7880     1.0880     2.0710 ha         1 39G       0.148000
     37 H9          -7.1090     1.9280     2.1910 ha         1 39G       0.139500
     38 H10         -8.7940     1.1450     0.5570 ha         1 39G       0.138000
     39 H11         -8.1510    -0.4740    -1.1990 ha         1 39G       0.139500
     40 H12         -5.8220    -1.2890    -1.3380 ha         1 39G       0.148000
     41 H13          2.2280     0.6750    -0.1910 ha         1 39G       0.178000
     42 H14          5.8160    -1.6520    -0.5930 ha         1 39G       0.153000
     43 H15          4.5080    -3.6970    -0.2350 ha         1 39G       0.134000
     44 H16          1.4230    -4.0260     1.1720 hc         1 39G       0.047700
     45 H17          1.0370    -4.0510    -0.5450 hc         1 39G       0.047700
     46 H18          2.4980    -4.8370     0.0480 hc         1 39G       0.047700
     47 H19          6.8890     1.2310     2.4460 h1         1 39G       0.052700
     48 H20          6.1410    -0.2620     1.8670 h1         1 39G       0.052700
     49 H21          7.3660     0.5750     0.8850 h1         1 39G       0.052700
     50 H22         -1.8360    -3.0110     0.5280 h4         1 39G       0.036100
     51 H23          0.2340    -2.1600     0.7760 hn         1 39G       0.320500
     52 H24          4.8940     2.4890     2.6970 h1         1 39G       0.052700
     53 H25          3.7190     2.5920     1.3960 h1         1 39G       0.052700
     54 H26          3.9180     1.0700     2.2940 h1         1 39G       0.052700
     55 S25          5.0180     1.1330    -0.5760 sy         1 39G       1.286200
     56 C24          1.8570    -3.9670     0.1710 c3         1 39G      -0.056800
@<TRIPOS>BOND
     1     1     2 1   
     2     1    29 1   
     3     1    30 1   
     4     1    31 1   
     5     2     3 1   
     6     2    32 1   
     7     2    33 1   
     8     3    16 1   
     9     3    34 1   
    10     3    35 1   
    11     4     5 ar  
    12     4     9 ar  
    13     4    20 1   
    14     5     6 ar  
    15     5    36 1   
    16     6     7 ar  
    17     6    37 1   
    18     7     8 ar  
    19     7    38 1   
    20     8     9 ar  
    21     8    39 1   
    22     9    40 1   
    23    10    17 1   
    24    10    21 2   
    25    10    22 1   
    26    11    12 ar  
    27    11    23 ar  
    28    11    41 1   
    29    12    13 ar  
    30    12    55 1   
    31    13    14 ar  
    32    13    42 1   
    33    14    24 ar  
    34    14    43 1   
    35    15    27 1   
    36    15    47 1   
    37    15    48 1   
    38    15    49 1   
    39    16    17 2   
    40    16    20 1   
    41    17    18 1   
    42    18    19 2   
    43    18    50 1   
    44    19    20 1   
    45    22    23 1   
    46    22    51 1   
    47    23    24 ar  
    48    24    56 1   
    49    25    55 2   
    50    26    55 2   
    51    27    28 1   
    52    27    55 1   
    53    28    52 1   
    54    28    53 1   
    55    28    54 1   
    56    44    56 1   
    57    45    56 1   
    58    46    56 1   
@<TRIPOS>SUBSTRUCTURE
     1 39G         1 TEMP              0 ****  ****    0 ROOT
