@<TRIPOS>MOLECULE
39G
   56    58     1     0     0
SMALL
No Charge or Current Charge


@<TRIPOS>ATOM
      1 C1          -3.0030     3.6530    -1.6080 c3         1 39G      -0.089100
      2 C2          -2.8890     2.1210    -1.4850 c3         1 39G      -0.068400
      3 C3          -2.8480     1.6310    -0.0220 c3         1 39G      -0.025100
      4 C9          -5.1570    -0.3500     0.1650 ca         1 39G      -0.000200
      5 C10         -5.7830     0.0400     1.3660 ca         1 39G      -0.092500
      6 C11         -7.1240     0.4630     1.3580 ca         1 39G      -0.104000
      7 C12         -7.8440     0.4970     0.1510 ca         1 39G      -0.098000
      8 C13         -7.2230     0.1090    -1.0490 ca         1 39G      -0.104000
      9 C14         -5.8820    -0.3150    -1.0420 ca         1 39G      -0.092500
     10 C15         -0.2440    -0.3490     0.0150 c          1 39G       0.659700
     11 C19          2.8470    -0.5120    -0.4660 ca         1 39G      -0.028000
     12 C20          4.2470    -0.6680    -0.5280 ca         1 39G      -0.286500
     13 C21          4.8290    -1.8920    -0.1470 ca         1 39G      -0.037000
     14 C22          4.0160    -2.9460     0.2930 ca         1 39G      -0.111000
     15 C30          6.2030     0.8390     1.4100 c3         1 39G       0.168100
     16 C4          -2.7500     0.1260     0.0800 cc         1 39G      -0.038300
     17 C5          -1.6750    -0.7350     0.1010 cd         1 39G      -0.300600
     18 C6          -2.2010    -2.0490     0.2080 cd         1 39G       0.264900
     19 N7          -3.5180    -2.0890     0.2500 nc         1 39G      -0.502800
     20 N8          -3.8230    -0.7540     0.1690 na         1 39G       0.218000
     21 O16          0.1400     0.8090    -0.0840 o          1 39G      -0.580100
     22 N17          0.6050    -1.4460     0.0700 ns         1 39G      -0.160000
     23 C18          2.0230    -1.5660    -0.0100 ca         1 39G      -0.039000
     24 C23          2.6170    -2.7960     0.3640 ca         1 39G      -0.069300
     25 O26          6.5990     0.1850    -1.5180 o          1 39G      -0.530000
     26 O27          4.5050     1.5570    -1.9960 o          1 39G      -0.530000
     27 N28          5.5600     1.6040     0.3200 n3         1 39G      -0.702500
     28 C29          4.3860     2.3670     0.7960 c3         1 39G       0.168100
     29 H1          -3.9220     4.0130    -1.1280 hc         1 39G       0.035700
     30 H2          -2.1470     4.1460    -1.1320 hc         1 39G       0.035700
     31 H3          -3.0280     3.9510    -2.6630 hc         1 39G       0.035700
     32 H4          -3.7400     1.6570    -1.9990 hc         1 39G       0.049200
     33 H5          -1.9820     1.7870    -2.0040 hc         1 39G       0.049200
     34 H6          -2.0070     2.1030     0.4990 hc         1 39G       0.067200
     35 H7          -3.7480     1.9840     0.4960 hc         1 39G       0.067200
     36 H8          -5.2280     0.0160     2.3020 ha         1 39G       0.130000
     37 H9          -7.6040     0.7640     2.2870 ha         1 39G       0.121500
     38 H10         -8.8810     0.8250     0.1460 ha         1 39G       0.120000
     39 H11         -7.7800     0.1360    -1.9830 ha         1 39G       0.121500
     40 H12         -5.4050    -0.6140    -1.9730 ha         1 39G       0.130000
     41 H13          2.4130     0.4320    -0.7860 ha         1 39G       0.160000
     42 H14          5.9080    -2.0330    -0.1920 ha         1 39G       0.135000
     43 H15          4.4790    -3.8870     0.5810 ha         1 39G       0.116000
     44 H16          1.1780    -3.6870     1.7330 hc         1 39G       0.047700
     45 H17          1.0710    -4.3000     0.0710 hc         1 39G       0.047700
     46 H18          2.3820    -4.8300     1.1310 hc         1 39G       0.047700
     47 H19          6.4670     1.5030     2.2430 h1         1 39G       0.052700
     48 H20          5.5340     0.0610     1.8010 h1         1 39G       0.052700
     49 H21          7.1290     0.3580     1.0670 h1         1 39G       0.052700
     50 H22         -1.6550    -2.9840     0.2510 h4         1 39G       0.036100
     51 H23          0.1300    -2.3300     0.1890 hn         1 39G       0.154000
     52 H24          4.6560     2.9910     1.6590 h1         1 39G       0.052700
     53 H25          4.0000     3.0380     0.0180 h1         1 39G       0.052700
     54 H26          3.5740     1.6970     1.1090 h1         1 39G       0.052700
     55 S25          5.2860     0.6940    -1.1020 sy         1 39G       1.144600
     56 C24          1.7660    -3.9660     0.8510 c3         1 39G      -0.056800
@<TRIPOS>BOND
     1     1     2 1   
     2     1    29 1   
     3     1    30 1   
     4     1    31 1   
     5     2     3 1   
     6     2    32 1   
     7     2    33 1   
     8     3    16 1   
     9     3    34 1   
    10     3    35 1   
    11     4     5 ar  
    12     4     9 ar  
    13     4    20 1   
    14     5     6 ar  
    15     5    36 1   
    16     6     7 ar  
    17     6    37 1   
    18     7     8 ar  
    19     7    38 1   
    20     8     9 ar  
    21     8    39 1   
    22     9    40 1   
    23    10    17 1   
    24    10    21 2   
    25    10    22 1   
    26    11    12 ar  
    27    11    23 ar  
    28    11    41 1   
    29    12    13 ar  
    30    12    55 1   
    31    13    14 ar  
    32    13    42 1   
    33    14    24 ar  
    34    14    43 1   
    35    15    27 1   
    36    15    47 1   
    37    15    48 1   
    38    15    49 1   
    39    16    17 2   
    40    16    20 1   
    41    17    18 1   
    42    18    19 2   
    43    18    50 1   
    44    19    20 1   
    45    22    23 1   
    46    22    51 1   
    47    23    24 ar  
    48    24    56 1   
    49    25    55 2   
    50    26    55 2   
    51    27    28 1   
    52    27    55 1   
    53    28    52 1   
    54    28    53 1   
    55    28    54 1   
    56    44    56 1   
    57    45    56 1   
    58    46    56 1   
@<TRIPOS>SUBSTRUCTURE
     1 39G         1 TEMP              0 ****  ****    0 ROOT
