@<TRIPOS>MOLECULE
39H
   50    54     1     0     0
SMALL
No Charge or Current Charge


@<TRIPOS>ATOM
      1 O16          5.4880    -2.2220     1.6380 o          1 39H      -0.538000
      2 C9           4.8230    -1.3620     1.0680 c          1 39H       0.549600
      3 N10          3.4260    -1.2300     1.2450 n          1 39H      -0.135800
      4 C17          2.7290    -2.1550     2.1630 c3         1 39H       0.101300
      5 N11          2.6080    -0.2980     0.6240 nc         1 39H      -0.421300
      6 C8           5.4310    -0.3580     0.1300 ca         1 39H      -0.142600
      7 C15          6.8220    -0.3520    -0.1120 ca         1 39H      -0.048000
      8 C14          7.3860     0.6050    -0.9680 ca         1 39H      -0.114000
      9 C13          6.5680     1.5650    -1.5800 ca         1 39H      -0.081000
     10 C12          5.1830     1.5640    -1.3450 ca         1 39H      -0.106000
     11 C7           4.5920     0.5950    -0.4980 ca         1 39H      -0.115900
     12 C6           3.1240     0.5780    -0.2410 cd         1 39H       0.369900
     13 C5           2.1480     1.5400    -0.8700 c3         1 39H      -0.186700
     14 C1           0.7200     1.0010    -0.9280 c          1 39H       0.623100
     15 O1           0.3770     0.2050    -1.7940 o          1 39H      -0.573100
     16 N1          -0.1210     1.4930     0.0640 ns         1 39H      -0.137000
     17 C23         -1.4880     1.2420     0.3730 ca         1 39H      -0.040000
     18 C18         -2.0550     1.9780     1.4470 ca         1 39H      -0.149000
     19 C22         -2.2850     0.3010    -0.3320 ca         1 39H      -0.087000
     20 C21         -3.6190     0.1370     0.0660 ca         1 39H      -0.073800
     21 C26         -4.6580    -0.7330    -0.4510 cc         1 39H      -0.138400
     22 C30         -4.6980    -1.7170    -1.5950 c6         1 39H      -0.003200
     23 C29         -5.9710    -2.6060    -1.5050 c6         1 39H      -0.077400
     24 C28         -7.2450    -1.7770    -1.1730 c6         1 39H      -0.073400
     25 C27         -7.1230    -1.0650     0.2020 c6         1 39H      -0.011200
     26 C25         -5.7570    -0.4390     0.3400 cd         1 39H       0.031900
     27 O24         -5.4540     0.5130     1.2800 os         1 39H      -0.168200
     28 C20         -4.1510     0.8610     1.1070 ca         1 39H       0.035100
     29 C19         -3.4030     1.7950     1.8270 ca         1 39H      -0.076000
     30 H1           3.1510    -2.0620     3.1710 h1         1 39H       0.058033
     31 H2           1.6570    -1.9250     2.2050 h1         1 39H       0.058033
     32 H3           2.8570    -3.1870     1.8130 h1         1 39H       0.058033
     33 H4           7.4680    -1.0860     0.3680 ha         1 39H       0.142000
     34 H5           8.4590     0.6080    -1.1500 ha         1 39H       0.123000
     35 H6           7.0060     2.3130    -2.2360 ha         1 39H       0.119000
     36 H7           4.5810     2.3290    -1.8290 ha         1 39H       0.119000
     37 H8           2.1690     2.4670    -0.2860 hc         1 39H       0.077200
     38 H9           2.4500     1.7410    -1.9020 hc         1 39H       0.077200
     39 H10          0.3240     2.1470     0.6940 hn         1 39H       0.149000
     40 H11         -1.4480     2.6990     1.9900 ha         1 39H       0.110000
     41 H12         -1.9010    -0.2920    -1.1550 ha         1 39H       0.154000
     42 H13         -4.6990    -1.1750    -2.5500 hc         1 39H       0.053700
     43 H14         -3.8010    -2.3500    -1.6010 hc         1 39H       0.053700
     44 H15         -6.1110    -3.1470    -2.4510 hc         1 39H       0.044200
     45 H16         -5.8270    -3.3720    -0.7310 hc         1 39H       0.044200
     46 H17         -7.4040    -1.0270    -1.9610 hc         1 39H       0.045700
     47 H18         -8.1310    -2.4250    -1.1780 hc         1 39H       0.045700
     48 H19         -7.9130    -0.3090     0.3070 hc         1 39H       0.061700
     49 H20         -7.2770    -1.7940     1.0090 hc         1 39H       0.061700
     50 H21         -3.8440     2.3560     2.6470 ha         1 39H       0.130000
@<TRIPOS>BOND
     1     1     2 2   
     2     2     3 1   
     3     2     6 1   
     4     3     4 1   
     5     3     5 1   
     6     4    30 1   
     7     4    31 1   
     8     4    32 1   
     9     5    12 2   
    10     6     7 ar  
    11     6    11 ar  
    12     7     8 ar  
    13     7    33 1   
    14     8     9 ar  
    15     8    34 1   
    16     9    10 ar  
    17     9    35 1   
    18    10    11 ar  
    19    10    36 1   
    20    11    12 1   
    21    12    13 1   
    22    13    14 1   
    23    13    37 1   
    24    13    38 1   
    25    14    15 2   
    26    14    16 1   
    27    16    17 1   
    28    16    39 1   
    29    17    18 ar  
    30    17    19 ar  
    31    18    29 ar  
    32    18    40 1   
    33    19    20 ar  
    34    19    41 1   
    35    20    21 1   
    36    20    28 ar  
    37    21    22 1   
    38    21    26 2   
    39    22    23 1   
    40    22    42 1   
    41    22    43 1   
    42    23    24 1   
    43    23    44 1   
    44    23    45 1   
    45    24    25 1   
    46    24    46 1   
    47    24    47 1   
    48    25    26 1   
    49    25    48 1   
    50    25    49 1   
    51    26    27 1   
    52    27    28 1   
    53    28    29 ar  
    54    29    50 1   
@<TRIPOS>SUBSTRUCTURE
     1 39H         1 TEMP              0 ****  ****    0 ROOT
