@<TRIPOS>MOLECULE
39H
   50    54     1     0     0
SMALL
bcc


@<TRIPOS>ATOM
      1 O16          5.2520    -2.0280     1.8380 o          1 39H      -0.613500
      2 C9           4.6450    -1.2480     1.1170 c          1 39H       0.692100
      3 N10          3.2850    -1.3160     0.9930 n          1 39H      -0.202800
      4 C17          2.5620    -2.3370     1.7330 c3         1 39H       0.101300
      5 N11          2.5310    -0.5130     0.2320 nc         1 39H      -0.421300
      6 C8           5.2810    -0.1910     0.3330 ca         1 39H      -0.142600
      7 C15          6.6670    -0.0250     0.3800 ca         1 39H      -0.066000
      8 C14          7.2610     0.9730    -0.3620 ca         1 39H      -0.132000
      9 C13          6.4810     1.8170    -1.1590 ca         1 39H      -0.099000
     10 C12          5.1130     1.6600    -1.2120 ca         1 39H      -0.124000
     11 C7           4.4960     0.6500    -0.4640 ca         1 39H      -0.115900
     12 C6           3.0720     0.4200    -0.4630 cd         1 39H       0.369900
     13 C5           2.1560     1.2830    -1.2850 c3         1 39H      -0.186700
     14 C1           0.7220     0.7890    -1.2340 c          1 39H       0.690100
     15 O1           0.3030    -0.0360    -2.0250 o          1 39H      -0.573100
     16 N1          -0.0110     1.3510    -0.2470 ns         1 39H      -0.463100
     17 C23         -1.3360     1.0960     0.1360 ca         1 39H       0.052600
     18 C18         -1.7910     1.8080     1.2610 ca         1 39H      -0.167000
     19 C22         -2.1820     0.2120    -0.5270 ca         1 39H      -0.105000
     20 C21         -3.4810     0.0640    -0.0410 ca         1 39H      -0.073800
     21 C26         -4.6170    -0.7230    -0.4360 cc         1 39H      -0.138400
     22 C30         -4.7930    -1.7090    -1.5420 c6         1 39H      -0.003200
     23 C29         -6.0700    -2.5230    -1.3110 c6         1 39H      -0.077400
     24 C28         -7.2430    -1.6380    -0.8900 c6         1 39H      -0.073400
     25 C27         -6.9820    -0.9460     0.4530 c6         1 39H      -0.011200
     26 C25         -5.6000    -0.4130     0.4370 cd         1 39H       0.031900
     27 O24         -5.1940     0.4950     1.3670 os         1 39H      -0.168200
     28 C20         -3.9030     0.7860     1.0750 ca         1 39H       0.035100
     29 C19         -3.0780     1.6660     1.7480 ca         1 39H      -0.094000
     30 H1           2.7240    -2.2280     2.8040 h1         1 39H       0.058033
     31 H2           1.5070    -2.2160     1.5160 h1         1 39H       0.058033
     32 H3           2.8790    -3.3340     1.4310 h1         1 39H       0.058033
     33 H4           7.2660    -0.6790     0.9980 ha         1 39H       0.160000
     34 H5           8.3340     1.1070    -0.3280 ha         1 39H       0.141000
     35 H6           6.9550     2.5980    -1.7370 ha         1 39H       0.137000
     36 H7           4.5220     2.3210    -1.8330 ha         1 39H       0.137000
     37 H8           2.2340     2.3210    -0.9470 hc         1 39H       0.077200
     38 H9           2.4790     1.2730    -2.3280 hc         1 39H       0.077200
     39 H10          0.4710     2.0220     0.3310 hn         1 39H       0.315500
     40 H11         -1.1170     2.4920     1.7630 ha         1 39H       0.128000
     41 H12         -1.8560    -0.3390    -1.3940 ha         1 39H       0.172000
     42 H13         -4.8430    -1.1900    -2.5050 hc         1 39H       0.053700
     43 H14         -3.9290    -2.3750    -1.6010 hc         1 39H       0.053700
     44 H15         -6.3250    -3.0720    -2.2180 hc         1 39H       0.044200
     45 H16         -5.8880    -3.2690    -0.5320 hc         1 39H       0.044200
     46 H17         -7.4160    -0.8780    -1.6580 hc         1 39H       0.045700
     47 H18         -8.1560    -2.2300    -0.8210 hc         1 39H       0.045700
     48 H19         -7.7070    -0.1450     0.6200 hc         1 39H       0.061700
     49 H20         -7.1050    -1.6560     1.2770 hc         1 39H       0.061700
     50 H21         -3.4100     2.2220     2.6150 ha         1 39H       0.148000
@<TRIPOS>BOND
     1     1     2 2   
     2     2     3 1   
     3     2     6 1   
     4     3     4 1   
     5     3     5 1   
     6     4    30 1   
     7     4    31 1   
     8     4    32 1   
     9     5    12 2   
    10     6     7 ar  
    11     6    11 ar  
    12     7     8 ar  
    13     7    33 1   
    14     8     9 ar  
    15     8    34 1   
    16     9    10 ar  
    17     9    35 1   
    18    10    11 ar  
    19    10    36 1   
    20    11    12 1   
    21    12    13 1   
    22    13    14 1   
    23    13    37 1   
    24    13    38 1   
    25    14    15 2   
    26    14    16 1   
    27    16    17 1   
    28    16    39 1   
    29    17    18 ar  
    30    17    19 ar  
    31    18    29 ar  
    32    18    40 1   
    33    19    20 ar  
    34    19    41 1   
    35    20    21 1   
    36    20    28 ar  
    37    21    22 1   
    38    21    26 2   
    39    22    23 1   
    40    22    42 1   
    41    22    43 1   
    42    23    24 1   
    43    23    44 1   
    44    23    45 1   
    45    24    25 1   
    46    24    46 1   
    47    24    47 1   
    48    25    26 1   
    49    25    48 1   
    50    25    49 1   
    51    26    27 1   
    52    27    28 1   
    53    28    29 ar  
    54    29    50 1   
@<TRIPOS>SUBSTRUCTURE
     1 39H         1 TEMP              0 ****  ****    0 ROOT
