@<TRIPOS>MOLECULE
39I
   44    48     1     0     0
SMALL
bcc


@<TRIPOS>ATOM
      1 C18         20.8200   -15.3050    11.0660 ca         1 39I      -0.125000
      2 C16         21.7350   -14.3610    10.6160 ca         1 39I      -0.130000
      3 C14         23.0850   -14.6780    10.5920 ca         1 39I      -0.125000
      4 C15         23.5210   -15.9300    11.0140 ca         1 39I      -0.122000
      5 C17         21.2580   -16.5530    11.4830 ca         1 39I      -0.122000
      6 C13         22.6120   -16.8810    11.4600 ca         1 39I      -0.103300
      7 C12         23.0290   -18.2580    11.9290 c3         1 39I       0.288100
      8 N           24.4320   -18.5450    11.8430 nu         1 39I      -0.870900
      9 C           25.0760   -18.9210    10.7170 ca         1 39I       0.951900
     10 N2          24.3270   -19.0570     9.6100 nb         1 39I      -0.821000
     11 C5          24.9150   -19.4460     8.4980 ca         1 39I       0.802200
     12 C2          26.2990   -19.6970     8.4880 ca         1 39I      -0.394700
     13 S           27.3530   -20.1970     7.2090 ss         1 39I      -0.065500
     14 C3          28.7000   -20.1630     8.2830 cc         1 39I      -0.076400
     15 C4          28.3830   -19.7920     9.5450 cd         1 39I      -0.252800
     16 C1          26.9840   -19.5130     9.6900 ca         1 39I       0.541100
     17 N1          26.3840   -19.1250    10.8190 nb         1 39I      -0.784000
     18 N3          24.1780   -19.6010     7.3680 nu         1 39I      -0.736300
     19 C11         22.8320   -19.3380     7.2100 cc         1 39I       0.148300
     20 C10         21.8920   -18.6450     7.9440 cd         1 39I      -0.304300
     21 N4          22.2020   -19.7860     6.1060 na         1 39I      -0.048600
     22 N5          20.9150   -19.4260     6.0640 nc         1 39I      -0.517800
     23 C9          20.7140   -18.7370     7.1700 cd         1 39I       0.363600
     24 C7          19.3870   -18.1680     7.4570 cx         1 39I      -0.159000
     25 C8          18.9110   -18.0230     8.8760 cx         1 39I      -0.123900
     26 C6          19.2660   -16.8070     8.0890 cx         1 39I      -0.123900
     27 H1          19.7640   -15.0720    11.0870 ha         1 39I       0.130500
     28 H2          21.3970   -13.3870    10.2860 ha         1 39I       0.130000
     29 H3          23.8070   -13.9500    10.2450 ha         1 39I       0.130500
     30 H4          24.5800   -16.1560    10.9950 ha         1 39I       0.131000
     31 H5          20.5360   -17.2840    11.8300 ha         1 39I       0.131000
     32 H6          22.7400   -18.3780    12.9750 h1         1 39I       0.063200
     33 H7          22.4650   -19.0080    11.3720 h1         1 39I       0.063200
     34 H8          25.0060   -18.3940    12.6550 hn         1 39I       0.454800
     35 H9          29.6770   -20.4270     7.9060 h4         1 39I       0.170000
     36 H10         29.0970   -19.7140    10.3510 ha         1 39I       0.170000
     37 H11         24.6570   -19.9430     6.5480 hn         1 39I       0.447800
     38 H12         22.0340   -18.1420     8.8840 ha         1 39I       0.188000
     39 H13         22.5950   -20.3370     5.3590 hn         1 39I       0.315700
     40 H14         18.6360   -18.4240     6.7190 hc         1 39I       0.092700
     41 H15         19.5870   -18.3320     9.6640 hc         1 39I       0.073200
     42 H16         17.8670   -18.2240     9.0780 hc         1 39I       0.073200
     43 H17         20.1830   -16.2890     8.3430 hc         1 39I       0.073200
     44 H18         18.4680   -16.1620     7.7440 hc         1 39I       0.073200
@<TRIPOS>BOND
     1     1     2 ar  
     2     1     5 ar  
     3     1    27 1   
     4     2     3 ar  
     5     2    28 1   
     6     3     4 ar  
     7     3    29 1   
     8     4     6 ar  
     9     4    30 1   
    10     5     6 ar  
    11     5    31 1   
    12     6     7 1   
    13     7     8 1   
    14     7    32 1   
    15     7    33 1   
    16     8     9 1   
    17     8    34 1   
    18     9    10 ar  
    19     9    17 ar  
    20    10    11 ar  
    21    11    12 ar  
    22    11    18 1   
    23    12    13 1   
    24    12    16 ar  
    25    13    14 1   
    26    14    15 2   
    27    14    35 1   
    28    15    16 1   
    29    15    36 1   
    30    16    17 ar  
    31    18    19 1   
    32    18    37 1   
    33    19    20 2   
    34    19    21 1   
    35    20    23 1   
    36    20    38 1   
    37    21    22 1   
    38    21    39 1   
    39    22    23 2   
    40    23    24 1   
    41    24    25 1   
    42    24    26 1   
    43    24    40 1   
    44    25    26 1   
    45    25    41 1   
    46    25    42 1   
    47    26    43 1   
    48    26    44 1   
@<TRIPOS>SUBSTRUCTURE
     1 39I         1 TEMP              0 ****  ****    0 ROOT
