@<TRIPOS>MOLECULE
39I
   44    48     1     0     0
SMALL
No Charge or Current Charge


@<TRIPOS>ATOM
      1 C18         20.8340   -15.5030    10.8850 ca         1 39I      -0.107000
      2 C16         21.7530   -14.5170    10.4930 ca         1 39I      -0.112000
      3 C14         23.1280   -14.7290    10.6840 ca         1 39I      -0.107000
      4 C15         23.5850   -15.9260    11.2620 ca         1 39I      -0.104000
      5 C17         21.2900   -16.7030    11.4560 ca         1 39I      -0.104000
      6 C13         22.6680   -16.9330    11.6450 ca         1 39I      -0.103300
      7 C12         23.1130   -18.2530    12.2880 c3         1 39I       0.288100
      8 N           24.5200   -18.6090    12.0150 nu         1 39I      -0.926100
      9 C           25.0940   -18.9500    10.8000 ca         1 39I       0.425900
     10 N2          24.2890   -19.0510     9.7200 nb         1 39I      -0.295000
     11 C5          24.8870   -19.3800     8.5610 ca         1 39I       0.473900
     12 C2          26.2630   -19.6090     8.5070 ca         1 39I      -0.391000
     13 S           27.2620   -20.0580     7.0940 ss         1 39I       0.061400
     14 C3          28.7060   -20.0630     8.1500 cc         1 39I      -0.126400
     15 C4          28.3720   -19.7400     9.4540 cd         1 39I      -0.302800
     16 C1          26.9770   -19.4780     9.6680 ca         1 39I       0.212800
     17 N1          26.4260   -19.1470    10.8420 nb         1 39I      -0.258000
     18 N3          24.1180   -19.5070     7.4170 nu         1 39I      -0.929900
     19 C11         22.7700   -19.3720     7.1700 cc         1 39I       0.236000
     20 C10         21.8280   -18.5980     7.7690 cd         1 39I      -0.221000
     21 N4          22.0970   -19.9580     6.1030 na         1 39I      -0.048200
     22 N5          20.7540   -19.6040     6.0260 nc         1 39I      -0.517800
     23 C9          20.6280   -18.7790     7.0490 cd         1 39I       0.298300
     24 C7          19.3340   -18.1100     7.3550 cx         1 39I      -0.159000
     25 C8          18.8910   -17.8780     8.7840 cx         1 39I      -0.123900
     26 C6          19.2900   -16.7050     7.9190 cx         1 39I      -0.123900
     27 H1          19.7680   -15.3380    10.7450 ha         1 39I       0.112500
     28 H2          21.4010   -13.5890    10.0480 ha         1 39I       0.112000
     29 H3          23.8410   -13.9630    10.3870 ha         1 39I       0.112500
     30 H4          24.6530   -16.0640    11.4090 ha         1 39I       0.113000
     31 H5          20.5670   -17.4580    11.7590 ha         1 39I       0.113000
     32 H6          22.9610   -18.1680    13.3730 h1         1 39I       0.063200
     33 H7          22.4550   -19.0610    11.9380 h1         1 39I       0.063200
     34 H8          25.1740   -18.5490    12.7960 hn         1 39I       0.510000
     35 H9          29.6760   -20.3030     7.7260 h4         1 39I       0.220000
     36 H10         29.1060   -19.6870    10.2540 ha         1 39I       0.220000
     37 H11         24.6540   -19.8900     6.6420 hn         1 39I       0.503000
     38 H12         21.9760   -17.9530     8.6250 ha         1 39I       0.170000
     39 H13         22.5110   -20.5940     5.4280 hn         1 39I       0.366000
     40 H14         18.5510   -18.3650     6.6440 hc         1 39I       0.092700
     41 H15         19.5660   -18.1790     9.5810 hc         1 39I       0.073200
     42 H16         17.8360   -18.0020     9.0140 hc         1 39I       0.073200
     43 H17         20.2330   -16.2090     8.1330 hc         1 39I       0.073200
     44 H18         18.5010   -16.0440     7.5690 hc         1 39I       0.073200
@<TRIPOS>BOND
     1     1     2 ar  
     2     1     5 ar  
     3     1    27 1   
     4     2     3 ar  
     5     2    28 1   
     6     3     4 ar  
     7     3    29 1   
     8     4     6 ar  
     9     4    30 1   
    10     5     6 ar  
    11     5    31 1   
    12     6     7 1   
    13     7     8 1   
    14     7    32 1   
    15     7    33 1   
    16     8     9 1   
    17     8    34 1   
    18     9    10 ar  
    19     9    17 ar  
    20    10    11 ar  
    21    11    12 ar  
    22    11    18 1   
    23    12    13 1   
    24    12    16 ar  
    25    13    14 1   
    26    14    15 2   
    27    14    35 1   
    28    15    16 1   
    29    15    36 1   
    30    16    17 ar  
    31    18    19 1   
    32    18    37 1   
    33    19    20 2   
    34    19    21 1   
    35    20    23 1   
    36    20    38 1   
    37    21    22 1   
    38    21    39 1   
    39    22    23 2   
    40    23    24 1   
    41    24    25 1   
    42    24    26 1   
    43    24    40 1   
    44    25    26 1   
    45    25    41 1   
    46    25    42 1   
    47    26    43 1   
    48    26    44 1   
@<TRIPOS>SUBSTRUCTURE
     1 39I         1 TEMP              0 ****  ****    0 ROOT
