@<TRIPOS>MOLECULE
39J
   13    12     1     0     0
SMALL
abcg2


@<TRIPOS>ATOM
      1 C1          -1.3500     0.2610    -0.0400 c          1 39J       0.722000
      2 O1          -2.1460     0.5860     0.8590 o          1 39J      -0.713000
      3 C2           0.1270     0.1390     0.3990 c3         1 39J       0.039300
      4 O2          -1.5920     0.0700    -1.2430 o          1 39J      -0.713000
      5 C3           0.9810     1.2510    -0.1810 c3         1 39J      -0.076400
      6 C4           2.4300     1.2410     0.2760 c3         1 39J      -0.087100
      7 CL2          0.7710    -1.4750    -0.1450 cl         1 39J      -0.374000
      8 H2           0.2090     0.1240     1.4860 h1         1 39J       0.047700
      9 H31C         0.9170     1.2180    -1.2700 hc         1 39J       0.050700
     10 H32C         0.5140     2.1920     0.1280 hc         1 39J       0.050700
     11 H41C         2.9690     2.0960    -0.1340 hc         1 39J       0.017700
     12 H42C         2.5020     1.2980     1.3640 hc         1 39J       0.017700
     13 H43C         2.9490     0.3390    -0.0470 hc         1 39J       0.017700
@<TRIPOS>BOND
     1     1     2 1   
     2     1     3 1   
     3     1     4 1   
     4     3     5 1   
     5     3     7 1   
     6     3     8 1   
     7     5     6 1   
     8     5     9 1   
     9     5    10 1   
    10     6    11 1   
    11     6    12 1   
    12     6    13 1   
@<TRIPOS>SUBSTRUCTURE
     1 39J         1 TEMP              0 ****  ****    0 ROOT
