@<TRIPOS>MOLECULE
39J
   13    12     1     0     0
SMALL
No Charge or Current Charge


@<TRIPOS>ATOM
      1 C1          -1.3880     0.2830     0.0130 c          1 39J       0.722000
      2 O1          -2.2030     0.1790     0.9220 o          1 39J      -0.713000
      3 C2           0.1240     0.1110     0.3590 c3         1 39J       0.039300
      4 O2          -1.7100     0.5130    -1.1470 o          1 39J      -0.713000
      5 C3           1.0120     1.2250    -0.2590 c3         1 39J      -0.076400
      6 C4           2.4500     1.2650     0.3000 c3         1 39J      -0.087100
      7 Cl2          0.7640    -1.5530    -0.0890 cl         1 39J      -0.374000
      8 H2           0.2070     0.1770     1.4510 h1         1 39J       0.047700
      9 H31C         1.0480     1.1050    -1.3480 hc         1 39J       0.050700
     10 H32C         0.5410     2.1960    -0.0640 hc         1 39J       0.050700
     11 H41C         3.0040     2.1050    -0.1370 hc         1 39J       0.017700
     12 H42C         2.4400     1.3920     1.3890 hc         1 39J       0.017700
     13 H43C         2.9930     0.3420     0.0630 hc         1 39J       0.017700
@<TRIPOS>BOND
     1     1     2 1   
     2     1     3 1   
     3     1     4 1   
     4     3     5 1   
     5     3     7 1   
     6     3     8 1   
     7     5     6 1   
     8     5     9 1   
     9     5    10 1   
    10     6    11 1   
    11     6    12 1   
    12     6    13 1   
@<TRIPOS>SUBSTRUCTURE
     1 39J         1 TEMP              0 ****  ****    0 ROOT
