@<TRIPOS>MOLECULE
39K
   58    60     1     0     0
SMALL
No Charge or Current Charge


@<TRIPOS>ATOM
      1 C1         -32.5590    12.5630    35.5310 c3         1 39K      -0.085100
      2 C2         -31.7460    13.8730    35.3960 c3         1 39K      -0.075700
      3 C3         -30.9460    14.1610    36.6870 c3         1 39K      -0.085100
      4 C4         -30.8120    13.8600    34.1560 c3         1 39K       0.223800
      5 N5         -31.5070    13.6920    32.8550 n3         1 39K      -0.768500
      6 C6         -30.8320    12.7510    31.9400 c3         1 39K       0.292100
      7 C7         -30.7960    11.3490    32.4860 cc         1 39K      -0.213300
      8 C8         -31.8610    10.5200    32.7500 cd         1 39K      -0.103000
      9 C9         -31.4870     9.2530    33.2760 cd         1 39K      -0.109000
     10 C10        -30.1260     9.1150    33.3990 cc         1 39K      -0.169000
     11 S11        -29.2680    10.5620    32.8820 ss         1 39K       0.204000
     12 C12        -29.5120     7.9040    33.9500 ca         1 39K       0.054000
     13 C13        -30.1120     6.6380    33.7830 ca         1 39K      -0.123500
     14 C14        -29.5100     5.4830    34.3100 ca         1 39K      -0.010500
     15 C15        -28.2940     5.5790    35.0150 ca         1 39K      -0.280500
     16 C16        -27.6830     6.8380    35.1790 ca         1 39K      -0.010500
     17 C17        -28.2910     7.9890    34.6480 ca         1 39K      -0.123500
     18 S18        -27.5120     4.0960    35.6850 sy         1 39K       1.084500
     19 O19        -26.6160     4.4850    36.7820 o          1 39K      -0.529500
     20 O20        -28.5370     3.0590    35.8680 o          1 39K      -0.529500
     21 C21        -26.4640     3.5470    34.3400 c3         1 39K      -0.341100
     22 S22        -32.0340    15.1470    32.0900 s6         1 39K       1.218100
     23 O23        -33.0050    14.7450    31.0660 o          1 39K      -0.532500
     24 O24        -32.4640    16.0600    33.1550 o          1 39K      -0.532500
     25 C25        -30.5550    15.8300    31.3060 c3         1 39K      -0.276100
     26 C26        -30.7750    17.1790    30.6350 ca         1 39K      -0.073300
     27 C27        -31.1800    17.2430    29.2880 ca         1 39K      -0.088500
     28 C28        -31.3820    18.4880    28.6680 ca         1 39K      -0.107500
     29 C29        -31.1780    19.6760    29.3910 ca         1 39K      -0.100000
     30 C30        -30.7720    19.6170    30.7350 ca         1 39K      -0.107500
     31 C31        -30.5700    18.3710    31.3550 ca         1 39K      -0.088500
     32 H1         -33.2010    12.5940    36.4190 hc         1 39K       0.036367
     33 H2         -33.2050    12.4140    34.6580 hc         1 39K       0.036367
     34 H3         -31.8920    11.6970    35.6180 hc         1 39K       0.036367
     35 H4         -32.4660    14.6900    35.2810 hc         1 39K       0.080700
     36 H5         -31.6150    14.2190    37.5540 hc         1 39K       0.036367
     37 H6         -30.2090    13.3710    36.8750 hc         1 39K       0.036367
     38 H7         -30.4140    15.1170    36.6080 hc         1 39K       0.036367
     39 H8         -30.0960    13.0430    34.3150 h1         1 39K       0.040200
     40 H9         -30.2110    14.7800    34.1470 h1         1 39K       0.040200
     41 H10        -29.8050    13.0840    31.7310 h1         1 39K       0.061700
     42 H11        -31.3570    12.7060    30.9760 h1         1 39K       0.061700
     43 H12        -32.8930    10.8140    32.5850 ha         1 39K       0.153000
     44 H13        -32.2100     8.4940    33.5590 ha         1 39K       0.140000
     45 H14        -31.0420     6.5400    33.2300 ha         1 39K       0.123000
     46 H15        -29.9930     4.5170    34.1630 ha         1 39K       0.137500
     47 H16        -26.7400     6.9340    35.7160 ha         1 39K       0.137500
     48 H17        -27.8090     8.9520    34.7900 ha         1 39K       0.123000
     49 H18        -25.9440     2.6400    34.6610 h1         1 39K       0.102700
     50 H19        -27.1010     3.3430    33.4730 h1         1 39K       0.102700
     51 H20        -25.7500     4.3460    34.1160 h1         1 39K       0.102700
     52 H21        -30.2210    15.0920    30.5700 h1         1 39K       0.088200
     53 H22        -29.8000    15.9130    32.0950 h1         1 39K       0.088200
     54 H23        -31.3400    16.3280    28.7210 ha         1 39K       0.117500
     55 H24        -31.6960    18.5330    27.6270 ha         1 39K       0.116000
     56 H25        -31.3350    20.6400    28.9110 ha         1 39K       0.114000
     57 H26        -30.6140    20.5350    31.2960 ha         1 39K       0.116000
     58 H27        -30.2560    18.3340    32.3960 ha         1 39K       0.117500
@<TRIPOS>BOND
     1     1     2 1   
     2     1    32 1   
     3     1    33 1   
     4     1    34 1   
     5     2     3 1   
     6     2     4 1   
     7     2    35 1   
     8     3    36 1   
     9     3    37 1   
    10     3    38 1   
    11     4     5 1   
    12     4    39 1   
    13     4    40 1   
    14     5     6 1   
    15     5    22 1   
    16     6     7 1   
    17     6    41 1   
    18     6    42 1   
    19     7     8 2   
    20     7    11 1   
    21     8     9 1   
    22     8    43 1   
    23     9    10 2   
    24     9    44 1   
    25    10    11 1   
    26    10    12 1   
    27    12    13 ar  
    28    12    17 ar  
    29    13    14 ar  
    30    13    45 1   
    31    14    15 ar  
    32    14    46 1   
    33    15    16 ar  
    34    15    18 1   
    35    16    17 ar  
    36    16    47 1   
    37    17    48 1   
    38    18    19 2   
    39    18    20 2   
    40    18    21 1   
    41    21    49 1   
    42    21    50 1   
    43    21    51 1   
    44    22    23 2   
    45    22    24 2   
    46    22    25 1   
    47    25    26 1   
    48    25    52 1   
    49    25    53 1   
    50    26    27 ar  
    51    26    31 ar  
    52    27    28 ar  
    53    27    54 1   
    54    28    29 ar  
    55    28    55 1   
    56    29    30 ar  
    57    29    56 1   
    58    30    31 ar  
    59    30    57 1   
    60    31    58 1   
@<TRIPOS>SUBSTRUCTURE
     1 39K         1 TEMP              0 ****  ****    0 ROOT
