@<TRIPOS>MOLECULE
39K
   58    60     1     0     0
SMALL
abcg2


@<TRIPOS>ATOM
      1 C1         -31.5790    12.4260    35.3350 c3         1 39K      -0.085100
      2 C2         -31.0070    13.8410    35.3040 c3         1 39K      -0.075700
      3 C3         -30.2130    14.1490    36.5750 c3         1 39K      -0.085100
      4 C4         -30.0970    14.0840    34.0970 c3         1 39K       0.223800
      5 N5         -30.7000    13.7980    32.7780 n3         1 39K      -0.768500
      6 C6         -29.9700    12.8630    31.8940 c3         1 39K       0.292100
      7 C7         -30.2050    11.4360    32.2760 cc         1 39K      -0.213300
      8 C8         -31.3290    10.6890    32.0490 cd         1 39K      -0.103000
      9 C9         -31.2500     9.3850    32.5900 cd         1 39K      -0.109000
     10 C10        -30.0610     9.1320    33.2370 cc         1 39K      -0.169000
     11 S11        -29.0350    10.5300    33.1620 ss         1 39K       0.204000
     12 C12        -29.6390     7.8980    33.8930 ca         1 39K       0.054000
     13 C13        -30.2450     6.6780    33.5530 ca         1 39K      -0.123500
     14 C14        -29.8660     5.4990    34.1690 ca         1 39K      -0.010500
     15 C15        -28.8640     5.5210    35.1350 ca         1 39K      -0.280500
     16 C16        -28.2410     6.7160    35.4860 ca         1 39K      -0.010500
     17 C17        -28.6320     7.8930    34.8710 ca         1 39K      -0.123500
     18 S18        -28.3590     4.0050    35.9000 sy         1 39K       1.084500
     19 O19        -27.8530     4.3010    37.2290 o          1 39K      -0.529500
     20 O20        -29.4450     3.0490    35.7770 o          1 39K      -0.529500
     21 C21        -27.0030     3.4370    34.9040 c3         1 39K      -0.341100
     22 S22        -31.5930    14.9630    32.0570 s6         1 39K       1.218100
     23 O23        -32.3180    14.3510    30.9650 o          1 39K      -0.532500
     24 O24        -32.3410    15.6420    33.0910 o          1 39K      -0.532500
     25 C25        -30.4220    16.1460    31.3520 c3         1 39K      -0.276100
     26 C26        -31.1250    17.3170    30.7340 ca         1 39K      -0.073300
     27 C27        -31.5250    17.2800    29.3980 ca         1 39K      -0.088500
     28 C28        -32.1990    18.3570    28.8350 ca         1 39K      -0.107500
     29 C29        -32.4820    19.4820    29.6040 ca         1 39K      -0.100000
     30 C30        -32.0840    19.5270    30.9370 ca         1 39K      -0.107500
     31 C31        -31.4100    18.4490    31.4990 ca         1 39K      -0.088500
     32 H1         -32.2200    12.2960    36.2090 hc         1 39K       0.036367
     33 H2         -32.1720    12.2180    34.4440 hc         1 39K       0.036367
     34 H3         -30.7810    11.6810    35.3860 hc         1 39K       0.036367
     35 H4         -31.8370    14.5460    35.2370 hc         1 39K       0.080700
     36 H5         -30.8440    14.0430    37.4590 hc         1 39K       0.036367
     37 H6         -29.3680    13.4620    36.6800 hc         1 39K       0.036367
     38 H7         -29.8190    15.1680    36.5600 hc         1 39K       0.036367
     39 H8         -29.2230    13.4350    34.1730 h1         1 39K       0.040200
     40 H9         -29.7250    15.1110    34.1250 h1         1 39K       0.040200
     41 H10        -28.9050    13.1040    31.9140 h1         1 39K       0.061700
     42 H11        -30.3250    13.0130    30.8770 h1         1 39K       0.061700
     43 H12        -32.1920    11.0750    31.5240 ha         1 39K       0.153000
     44 H13        -32.0490     8.6610    32.5200 ha         1 39K       0.140000
     45 H14        -31.0100     6.6520    32.7890 ha         1 39K       0.123000
     46 H15        -30.3400     4.5660    33.9000 ha         1 39K       0.137500
     47 H16        -27.4690     6.7270    36.2440 ha         1 39K       0.137500
     48 H17        -28.1620     8.8220    35.1670 ha         1 39K       0.123000
     49 H18        -26.6670     2.4980    35.3440 h1         1 39K       0.102700
     50 H19        -27.3590     3.2840    33.8870 h1         1 39K       0.102700
     51 H20        -26.2120     4.1840    34.9350 h1         1 39K       0.102700
     52 H21        -29.8400    15.5810    30.6240 h1         1 39K       0.088200
     53 H22        -29.7760    16.4460    32.1760 h1         1 39K       0.088200
     54 H23        -31.3060    16.4040    28.8000 ha         1 39K       0.117500
     55 H24        -32.5030    18.3180    27.7970 ha         1 39K       0.116000
     56 H25        -33.0070    20.3220    29.1660 ha         1 39K       0.114000
     57 H26        -32.2980    20.4010    31.5390 ha         1 39K       0.116000
     58 H27        -31.1020    18.4820    32.5370 ha         1 39K       0.117500
@<TRIPOS>BOND
     1     1     2 1   
     2     1    32 1   
     3     1    33 1   
     4     1    34 1   
     5     2     3 1   
     6     2     4 1   
     7     2    35 1   
     8     3    36 1   
     9     3    37 1   
    10     3    38 1   
    11     4     5 1   
    12     4    39 1   
    13     4    40 1   
    14     5     6 1   
    15     5    22 1   
    16     6     7 1   
    17     6    41 1   
    18     6    42 1   
    19     7     8 2   
    20     7    11 1   
    21     8     9 1   
    22     8    43 1   
    23     9    10 2   
    24     9    44 1   
    25    10    11 1   
    26    10    12 1   
    27    12    13 ar  
    28    12    17 ar  
    29    13    14 ar  
    30    13    45 1   
    31    14    15 ar  
    32    14    46 1   
    33    15    16 ar  
    34    15    18 1   
    35    16    17 ar  
    36    16    47 1   
    37    17    48 1   
    38    18    19 2   
    39    18    20 2   
    40    18    21 1   
    41    21    49 1   
    42    21    50 1   
    43    21    51 1   
    44    22    23 2   
    45    22    24 2   
    46    22    25 1   
    47    25    26 1   
    48    25    52 1   
    49    25    53 1   
    50    26    27 ar  
    51    26    31 ar  
    52    27    28 ar  
    53    27    54 1   
    54    28    29 ar  
    55    28    55 1   
    56    29    30 ar  
    57    29    56 1   
    58    30    31 ar  
    59    30    57 1   
    60    31    58 1   
@<TRIPOS>SUBSTRUCTURE
     1 39K         1 TEMP              0 ****  ****    0 ROOT
