@<TRIPOS>MOLECULE
39L
   27    28     1     0     0
SMALL
bcc


@<TRIPOS>ATOM
      1 O4           1.7420    -2.7300    -0.5040 o          1 39L      -0.957833
      2 P2           2.4270    -1.4000    -0.1210 p5         1 39L       1.190700
      3 O6           3.1700    -1.5100     1.2140 o          1 39L      -0.957833
      4 O5           3.2530    -0.8080    -1.2700 o          1 39L      -0.957833
      5 C9           1.0040    -0.2060     0.1020 c3         1 39L      -0.092100
      6 F            0.2530    -0.7390     1.2070 f          1 39L      -0.317300
      7 P1           1.3620     1.5970     0.5030 p5         1 39L       1.190700
      8 O3           1.5440     2.2760    -0.8650 o          1 39L      -0.957833
      9 O1           0.1230     2.0860     1.2680 o          1 39L      -0.957833
     10 O2           2.6300     1.6350     1.3670 o          1 39L      -0.957833
     11 C8           0.0910    -0.3070    -1.1190 c3         1 39L      -0.016200
     12 C2          -1.2460     0.3100    -0.9640 cc         1 39L       0.020700
     13 C1          -1.7350     1.5440    -1.2980 cd         1 39L      -0.008400
     14 N1          -3.0450     1.6930    -0.9740 nd         1 39L      -0.342600
     15 C7          -3.3940     0.5470    -0.4220 cc         1 39L      -0.124300
     16 N2          -2.3160    -0.3320    -0.3950 na         1 39L       0.028700
     17 C3          -2.4180    -1.5890     0.1270 cc         1 39L       0.038700
     18 C4          -3.6100    -2.0100     0.6190 cd         1 39L      -0.292000
     19 C5          -4.7380    -1.1470     0.6090 cd         1 39L      -0.192000
     20 C6          -4.6310     0.1140     0.0980 cc         1 39L      -0.111000
     21 H5           0.6090     0.1870    -1.9380 hc         1 39L       0.056700
     22 H6          -0.0170    -1.3590    -1.4040 hc         1 39L       0.056700
     23 H7          -1.1600     2.3400    -1.7440 h4         1 39L       0.196000
     24 H8          -1.5230    -2.1910     0.1270 h4         1 39L       0.219000
     25 H9          -3.6850    -3.0080     1.0280 ha         1 39L       0.095000
     26 H10         -5.6810    -1.4950     1.0100 ha         1 39L       0.062000
     27 H11         -5.4700     0.7960     0.0760 ha         1 39L       0.089000
@<TRIPOS>BOND
     1     1     2 1   
     2     2     3 1   
     3     2     4 1   
     4     2     5 1   
     5     5     6 1   
     6     5     7 1   
     7     5    11 1   
     8     7     8 1   
     9     7     9 1   
    10     7    10 1   
    11    11    12 1   
    12    11    21 1   
    13    11    22 1   
    14    12    13 2   
    15    12    16 1   
    16    13    14 1   
    17    13    23 1   
    18    14    15 2   
    19    15    16 1   
    20    15    20 1   
    21    16    17 1   
    22    17    18 2   
    23    17    24 1   
    24    18    19 1   
    25    18    25 1   
    26    19    20 2   
    27    19    26 1   
    28    20    27 1   
@<TRIPOS>SUBSTRUCTURE
     1 39L         1 TEMP              0 ****  ****    0 ROOT
