@<TRIPOS>MOLECULE
39L
   27    28     1     0     0
SMALL
No Charge or Current Charge


@<TRIPOS>ATOM
      1 O4           2.3010    -2.4840    -0.7910 o          1 39L      -0.957833
      2 P2           2.6240    -1.1400    -0.2190 p5         1 39L       1.348500
      3 O6           3.4460    -1.4000     1.0030 o          1 39L      -0.957833
      4 O5           3.4260    -0.4030    -1.2410 o          1 39L      -0.957833
      5 C9           1.0110    -0.3270     0.1920 c3         1 39L      -0.389000
      6 F            0.4020    -0.9290     1.2750 f          1 39L      -0.336000
      7 P1           1.5140     1.4240     0.5430 p5         1 39L       1.348500
      8 O3           1.6780     2.1960    -0.7270 o          1 39L      -0.957833
      9 O1           0.3880     2.0730     1.2830 o          1 39L      -0.957833
     10 O2           2.7360     1.5670     1.3890 o          1 39L      -0.957833
     11 C8           0.0510    -0.4250    -1.0340 c3         1 39L      -0.016200
     12 C2          -1.3060     0.2280    -0.8720 cc         1 39L       0.020700
     13 C1          -1.7500     1.4670    -1.2990 cd         1 39L      -0.058400
     14 N1          -3.1100     1.6550    -1.0370 nd         1 39L      -0.342600
     15 C7          -3.5110     0.5400    -0.4560 cc         1 39L      -0.175000
     16 N2          -2.4490    -0.3100    -0.3350 na         1 39L       0.130100
     17 C3          -2.5300    -1.6000     0.2100 cc         1 39L       0.006000
     18 C4          -3.8030    -1.9600     0.6620 cd         1 39L      -0.274000
     19 C5          -4.9500    -1.0870     0.5710 cd         1 39L      -0.174000
     20 C6          -4.7990     0.1590     0.0110 cc         1 39L      -0.093000
     21 H5           0.5470     0.0150    -1.9080 hc         1 39L       0.056700
     22 H6          -0.0970    -1.4780    -1.2980 hc         1 39L       0.056700
     23 H7          -1.1550     2.2310    -1.7920 h4         1 39L       0.246000
     24 H8          -1.6360    -2.2090     0.2560 h4         1 39L       0.201000
     25 H9          -3.9340    -2.9430     1.1020 ha         1 39L       0.077000
     26 H10         -5.9190    -1.4100     0.9350 ha         1 39L       0.044000
     27 H11         -5.6360     0.8440    -0.0850 ha         1 39L       0.071000
@<TRIPOS>BOND
     1     1     2 1   
     2     2     3 1   
     3     2     4 1   
     4     2     5 1   
     5     5     6 1   
     6     5     7 1   
     7     5    11 1   
     8     7     8 1   
     9     7     9 1   
    10     7    10 1   
    11    11    12 1   
    12    11    21 1   
    13    11    22 1   
    14    12    13 2   
    15    12    16 1   
    16    13    14 1   
    17    13    23 1   
    18    14    15 2   
    19    15    16 1   
    20    15    20 1   
    21    16    17 1   
    22    17    18 2   
    23    17    24 1   
    24    18    19 1   
    25    18    25 1   
    26    19    20 2   
    27    19    26 1   
    28    20    27 1   
@<TRIPOS>SUBSTRUCTURE
     1 39L         1 TEMP              0 ****  ****    0 ROOT
