@<TRIPOS>MOLECULE
39O
   27    28     1     0     0
SMALL
abcg2


@<TRIPOS>ATOM
      1 CAA          3.5210     1.4450     0.0220 c3         1 39O      -0.038800
      2 CAH          2.2180     0.7020     0.0090 ca         1 39O      -0.132300
      3 CAF          1.0110     1.4030    -0.0190 ca         1 39O      -0.069000
      4 CAK         -0.1750     0.7000    -0.0110 ca         1 39O      -0.036400
      5 NAM         -1.5000     1.1030    -0.0290 n          1 39O      -0.289000
      6 CAB         -1.9470     2.4690    -0.0600 c3         1 39O       0.107300
      7 CAJ         -2.3200     0.0050    -0.0120 c          1 39O       0.597000
      8 OAE         -3.5410    -0.0020    -0.0220 o          1 39O      -0.572000
      9 NAN         -1.4920    -1.0960     0.0180 n          1 39O      -0.293000
     10 CAC         -1.9400    -2.4630     0.0430 c3         1 39O       0.105300
     11 CAL         -0.1740    -0.6920     0.0200 ca         1 39O       0.039600
     12 CAG          1.0020    -1.4130     0.0400 ca         1 39O      -0.178000
     13 CAI          2.2120    -0.7070     0.0370 ca         1 39O       0.282000
     14 NAD          3.4140    -1.4000     0.1250 nv         1 39O      -1.057000
     15 H1           4.1230     1.1940     0.9000 hc         1 39O       0.039700
     16 H2           4.1350     1.2240    -0.8550 hc         1 39O       0.039700
     17 H3           3.3570     2.5220     0.0340 hc         1 39O       0.039700
     18 H4           1.0220     2.4860    -0.0420 ha         1 39O       0.120000
     19 H5          -1.6000     2.9720    -0.9630 h1         1 39O       0.049367
     20 H6          -3.0330     2.4910    -0.0460 h1         1 39O       0.049367
     21 H7          -1.5780     3.0160     0.8080 h1         1 39O       0.049367
     22 H8          -3.0260    -2.4830     0.0370 h1         1 39O       0.049700
     23 H9          -1.5770    -3.0050    -0.8300 h1         1 39O       0.049700
     24 H10         -1.5870    -2.9690     0.9420 h1         1 39O       0.049700
     25 H11          1.0010    -2.4970     0.0560 ha         1 39O       0.121000
     26 H12          3.3430    -2.3780    -0.1080 hn         1 39O       0.438000
     27 H13          4.1850    -0.9820    -0.3710 hn         1 39O       0.438000
@<TRIPOS>BOND
     1     1     2 1   
     2     1    15 1   
     3     1    16 1   
     4     1    17 1   
     5     2     3 ar  
     6     2    13 ar  
     7     3     4 ar  
     8     3    18 1   
     9     4     5 1   
    10     4    11 ar  
    11     5     6 1   
    12     5     7 1   
    13     6    19 1   
    14     6    20 1   
    15     6    21 1   
    16     7     8 2   
    17     7     9 1   
    18     9    10 1   
    19     9    11 1   
    20    10    22 1   
    21    10    23 1   
    22    10    24 1   
    23    11    12 ar  
    24    12    13 ar  
    25    12    25 1   
    26    13    14 1   
    27    14    26 1   
    28    14    27 1   
@<TRIPOS>SUBSTRUCTURE
     1 39O         1 TEMP              0 ****  ****    0 ROOT
