@<TRIPOS>MOLECULE
39O
   27    28     1     0     0
SMALL
No Charge or Current Charge


@<TRIPOS>ATOM
      1 CAA          3.5660     1.4810     0.0010 c3         1 39O      -0.038800
      2 CAH          2.2540     0.7010     0.0620 ca         1 39O      -0.132300
      3 CAF          1.0310     1.4140     0.0330 ca         1 39O      -0.069000
      4 CAK         -0.1660     0.6940     0.1420 ca         1 39O      -0.036400
      5 NAM         -1.4960     1.1110    -0.1470 n          1 39O      -0.289000
      6 CAB         -1.9860     2.4950    -0.0220 c3         1 39O       0.107300
      7 CAJ         -2.3390    -0.0020    -0.2730 c          1 39O       0.597000
      8 OAE         -3.5500    -0.0030    -0.4460 o          1 39O      -0.572000
      9 NAN         -1.5010    -1.1140    -0.1100 n          1 39O      -0.293000
     10 CAC         -1.9940    -2.4920     0.0560 c3         1 39O       0.105300
     11 CAL         -0.1710    -0.6930     0.1610 ca         1 39O       0.039600
     12 CAG          1.0190    -1.4250     0.0800 ca         1 39O      -0.178000
     13 CAI          2.2400    -0.7230     0.0850 ca         1 39O       0.282000
     14 NAD          3.4080    -1.4410     0.0540 nv         1 39O      -1.057000
     15 H1           4.2160     1.2300     0.8490 hc         1 39O       0.039700
     16 H2           4.1140     1.2600    -0.9230 hc         1 39O       0.039700
     17 H3           3.3980     2.5640     0.0310 hc         1 39O       0.039700
     18 H4           1.0150     2.4950    -0.0790 ha         1 39O       0.120000
     19 H5          -2.0080     2.9660    -1.0120 h1         1 39O       0.049367
     20 H6          -2.9970     2.5000     0.4040 h1         1 39O       0.049367
     21 H7          -1.3210     3.0680     0.6370 h1         1 39O       0.049367
     22 H8          -3.0130    -2.4820     0.4630 h1         1 39O       0.049700
     23 H9          -1.9990    -2.9990    -0.9170 h1         1 39O       0.049700
     24 H10         -1.3430    -3.0410     0.7460 h1         1 39O       0.049700
     25 H11          0.9990    -2.5080     0.0060 ha         1 39O       0.121000
     26 H12          3.3840    -2.4500    -0.0760 hn         1 39O       0.438000
     27 H13          4.2940    -0.9610    -0.0850 hn         1 39O       0.438000
@<TRIPOS>BOND
     1     1     2 1   
     2     1    15 1   
     3     1    16 1   
     4     1    17 1   
     5     2     3 ar  
     6     2    13 ar  
     7     3     4 ar  
     8     3    18 1   
     9     4     5 1   
    10     4    11 ar  
    11     5     6 1   
    12     5     7 1   
    13     6    19 1   
    14     6    20 1   
    15     6    21 1   
    16     7     8 2   
    17     7     9 1   
    18     9    10 1   
    19     9    11 1   
    20    10    22 1   
    21    10    23 1   
    22    10    24 1   
    23    11    12 ar  
    24    12    13 ar  
    25    12    25 1   
    26    13    14 1   
    27    14    26 1   
    28    14    27 1   
@<TRIPOS>SUBSTRUCTURE
     1 39O         1 TEMP              0 ****  ****    0 ROOT
