@<TRIPOS>MOLECULE
39P
   55    58     1     0     0
SMALL
abcg2


@<TRIPOS>ATOM
      1 N1          -2.6900     1.2190    -0.9300 na         1 39P       0.290900
      2 N2          -1.9720     2.2300    -1.4590 nc         1 39P      -0.295800
      3 C3          -0.6980     2.0120    -1.4650 cd         1 39P       0.141900
      4 N4          -0.0280     0.9320    -1.0160 nd         1 39P      -0.291000
      5 C5          -0.7330    -0.0490    -0.5050 cc         1 39P       0.452900
      6 C6          -2.1570     0.0370    -0.4430 cc         1 39P      -0.277000
      7 C7          -3.2070    -0.7670    -0.0180 cd         1 39P      -0.028200
      8 C8          -4.3810    -0.0190    -0.2550 cd         1 39P      -0.221200
      9 C9          -4.0230     1.1990    -0.8200 cc         1 39P      -0.145100
     10 C10         -5.7760    -0.4490    -0.0080 c          1 39P       0.642300
     11 O11         -6.1200    -1.6220    -0.0880 o          1 39P      -0.607100
     12 N12         -6.6300     0.5490     0.2820 ns         1 39P      -0.506900
     13 C13         -8.0450     0.3530     0.5150 c3         1 39P       0.099000
     14 C14         -8.8410     1.5880     0.1230 c3         1 39P      -0.093400
     15 C15        -10.3270     1.4030     0.3960 c3         1 39P      -0.088100
     16 C16         -3.0940    -2.1230     0.6010 c3         1 39P      -0.043900
     17 N17         -0.1300    -1.1620    -0.0410 nu         1 39P      -0.929900
     18 C18          1.2390    -1.4710    -0.0300 ca         1 39P       0.283000
     19 C19          1.5980    -2.8170    -0.2010 ca         1 39P      -0.083300
     20 C20          2.9480    -3.1450    -0.1590 ca         1 39P      -0.100000
     21 C21          3.9260    -2.1830     0.0280 ca         1 39P      -0.093000
     22 C22          3.5580    -0.8530     0.2030 ca         1 39P      -0.142600
     23 C23          2.2110    -0.5050     0.1940 ca         1 39P      -0.048000
     24 C24          4.5430     0.2340     0.4650 c          1 39P       0.630700
     25 O25          4.2370     1.2530     1.0540 o          1 39P      -0.563100
     26 N26          5.8010     0.0070    -0.0080 ns         1 39P      -0.476400
     27 C27          6.8840     0.8410     0.1610 cc         1 39P       0.401900
     28 N28          7.9960     0.5350    -0.4530 nd         1 39P      -0.436300
     29 O29          8.8920     1.4980    -0.1040 os         1 39P      -0.059700
     30 C30          8.3100     2.3700     0.7130 cd         1 39P       0.170900
     31 C31          7.0240     2.0260     0.9340 cc         1 39P      -0.235000
     32 C32          0.5610    -3.8770    -0.4120 c3         1 39P      -0.058800
     33 H3          -0.0970     2.8070    -1.8880 h5         1 39P       0.060100
     34 H9          -4.6210     2.0220    -1.1760 h4         1 39P       0.239000
     35 HN12        -6.2510     1.4550     0.5070 hn         1 39P       0.311500
     36 H13         -8.3780    -0.5050    -0.0700 h1         1 39P       0.053200
     37 H13A        -8.2300     0.1100     1.5670 h1         1 39P       0.053200
     38 H14         -8.4710     2.4550     0.6770 hc         1 39P       0.042700
     39 H14A        -8.6780     1.8000    -0.9360 hc         1 39P       0.042700
     40 H15        -10.5130     1.2050     1.4520 hc         1 39P       0.036700
     41 H15A       -10.8920     2.2940     0.1200 hc         1 39P       0.036700
     42 H15B       -10.7310     0.5650    -0.1740 hc         1 39P       0.036700
     43 H16         -2.4710    -2.1070     1.4990 hc         1 39P       0.053033
     44 H16A        -4.0660    -2.5040     0.8950 hc         1 39P       0.053033
     45 H16B        -2.6720    -2.8530    -0.0950 hc         1 39P       0.053033
     46 HN17        -0.7400    -1.8970     0.2780 hn         1 39P       0.514000
     47 H20          3.2400    -4.1800    -0.2820 ha         1 39P       0.121000
     48 H21          4.9610    -2.4980     0.0640 ha         1 39P       0.120000
     49 H23          1.9240     0.5210     0.3590 ha         1 39P       0.163000
     50 HN26         5.9660    -0.8000    -0.5910 hn         1 39P       0.341500
     51 H30          8.9170     3.1890     1.0670 h4         1 39P       0.058100
     52 H31          6.3020     2.5300     1.5480 ha         1 39P       0.177000
     53 H32         -0.1030    -3.6360    -1.2450 hc         1 39P       0.049700
     54 H32A         1.0240    -4.8380    -0.6250 hc         1 39P       0.049700
     55 H32B        -0.0630    -4.0150     0.4760 hc         1 39P       0.049700
@<TRIPOS>BOND
     1     1     2 1   
     2     1     6 1   
     3     1     9 1   
     4     2     3 2   
     5     3     4 1   
     6     3    33 1   
     7     4     5 2   
     8     5     6 1   
     9     5    17 1   
    10     6     7 2   
    11     7     8 1   
    12     7    16 1   
    13     8     9 2   
    14     8    10 1   
    15     9    34 1   
    16    10    11 2   
    17    10    12 1   
    18    12    13 1   
    19    12    35 1   
    20    13    14 1   
    21    13    36 1   
    22    13    37 1   
    23    14    15 1   
    24    14    38 1   
    25    14    39 1   
    26    15    40 1   
    27    15    41 1   
    28    15    42 1   
    29    16    43 1   
    30    16    44 1   
    31    16    45 1   
    32    17    18 1   
    33    17    46 1   
    34    18    19 ar  
    35    18    23 ar  
    36    19    20 ar  
    37    19    32 1   
    38    20    21 ar  
    39    20    47 1   
    40    21    22 ar  
    41    21    48 1   
    42    22    23 ar  
    43    22    24 1   
    44    23    49 1   
    45    24    25 2   
    46    24    26 1   
    47    26    27 1   
    48    26    50 1   
    49    27    28 2   
    50    27    31 1   
    51    28    29 1   
    52    29    30 1   
    53    30    31 2   
    54    30    51 1   
    55    31    52 1   
    56    32    53 1   
    57    32    54 1   
    58    32    55 1   
@<TRIPOS>SUBSTRUCTURE
     1 39P         1 TEMP              0 ****  ****    0 ROOT
