@<TRIPOS>MOLECULE
39P
   55    58     1     0     0
SMALL
No Charge or Current Charge


@<TRIPOS>ATOM
      1 N1          -2.8400     1.3530    -0.8220 na         1 39P       0.290900
      2 N2          -2.2340     2.3940    -1.4760 nc         1 39P      -0.295800
      3 C3          -0.8970     2.2670    -1.5980 cd         1 39P       0.141900
      4 N4          -0.1070     1.1940    -1.1440 nd         1 39P      -0.291000
      5 C5          -0.7740     0.2410    -0.5250 cc         1 39P       0.452900
      6 C6          -2.1700     0.2860    -0.3360 cc         1 39P      -0.277000
      7 C7          -3.1010    -0.5430     0.2580 cd         1 39P      -0.028200
      8 C8          -4.3860     0.0870     0.0580 cd         1 39P      -0.221200
      9 C9          -4.1990     1.2880    -0.6180 cc         1 39P      -0.145100
     10 C10         -5.7380    -0.4140     0.4720 c          1 39P       0.642300
     11 O11         -5.9440    -1.4810     1.0320 o          1 39P      -0.607100
     12 N12         -6.7710     0.4400     0.1570 ns         1 39P      -0.506900
     13 C13         -8.1790     0.1740     0.4520 c3         1 39P       0.099000
     14 C14         -9.0840     1.3260    -0.0240 c3         1 39P      -0.093400
     15 C15        -10.5760     1.0770     0.2720 c3         1 39P      -0.088100
     16 C16         -2.8440    -1.8500     0.9810 c3         1 39P      -0.043900
     17 N17         -0.1110    -0.8720    -0.0850 nu         1 39P      -0.929900
     18 C18          1.2270    -1.2850    -0.1520 ca         1 39P       0.283000
     19 C19          1.5310    -2.6370    -0.4330 ca         1 39P      -0.083300
     20 C20          2.8780    -3.0440    -0.4820 ca         1 39P      -0.100000
     21 C21          3.9170    -2.1300    -0.2470 ca         1 39P      -0.093000
     22 C22          3.6300    -0.7760     0.0510 ca         1 39P      -0.142600
     23 C23          2.2740    -0.3760     0.0980 ca         1 39P      -0.048000
     24 C24          4.7120     0.2510     0.3250 c          1 39P       0.630700
     25 O25          4.4360     1.4120     0.5850 o          1 39P      -0.563100
     26 N26          6.0100    -0.2030     0.2610 ns         1 39P      -0.476400
     27 C27          7.1880     0.4770     0.4580 cc         1 39P       0.401900
     28 N28          8.3330    -0.1670     0.3460 nd         1 39P      -0.436300
     29 O29          9.3260     0.8450     0.6130 os         1 39P      -0.059700
     30 C30          8.6810     2.0270     0.8670 cd         1 39P       0.170900
     31 C31          7.3430     1.8360     0.7790 cc         1 39P      -0.235000
     32 C32          0.4300    -3.6650    -0.6940 c3         1 39P      -0.058800
     33 H3          -0.3570     3.0580    -2.1030 h5         1 39P       0.060100
     34 H9          -4.8680     2.0640    -0.9680 h4         1 39P       0.239000
     35 HN12        -6.5280     1.3050    -0.3020 hn         1 39P       0.311500
     36 H13         -8.4750    -0.7580    -0.0470 h1         1 39P       0.053200
     37 H13A        -8.2940     0.0380     1.5360 h1         1 39P       0.053200
     38 H14         -8.7740     2.2570     0.4650 hc         1 39P       0.042700
     39 H14A        -8.9540     1.4680    -1.1040 hc         1 39P       0.042700
     40 H15        -10.7440     0.9630     1.3500 hc         1 39P       0.036700
     41 H15A       -11.1820     1.9190    -0.0830 hc         1 39P       0.036700
     42 H15B       -10.9250     0.1670    -0.2310 hc         1 39P       0.036700
     43 H16         -1.9430    -1.7970     1.6010 hc         1 39P       0.053033
     44 H16A        -3.6520    -2.1130     1.6690 hc         1 39P       0.053033
     45 H16B        -2.7290    -2.6780     0.2710 hc         1 39P       0.053033
     46 HN17        -0.7650    -1.6270     0.0890 hn         1 39P       0.514000
     47 H20          3.1250    -4.0810    -0.7030 ha         1 39P       0.121000
     48 H21          4.9390    -2.4980    -0.2970 ha         1 39P       0.120000
     49 H23          2.0250     0.6510     0.3440 ha         1 39P       0.163000
     50 HN26         6.1020    -1.1810     0.0370 hn         1 39P       0.341500
     51 H30          9.2770     2.9030     1.0910 h4         1 39P       0.058100
     52 H31          6.5670     2.5750     0.9260 ha         1 39P       0.177000
     53 H32         -0.2410    -3.3340    -1.4950 hc         1 39P       0.049700
     54 H32A         0.8430    -4.6340    -0.9990 hc         1 39P       0.049700
     55 H32B        -0.1720    -3.8360     0.2060 hc         1 39P       0.049700
@<TRIPOS>BOND
     1     1     2 1   
     2     1     6 1   
     3     1     9 1   
     4     2     3 2   
     5     3     4 1   
     6     3    33 1   
     7     4     5 2   
     8     5     6 1   
     9     5    17 1   
    10     6     7 2   
    11     7     8 1   
    12     7    16 1   
    13     8     9 2   
    14     8    10 1   
    15     9    34 1   
    16    10    11 2   
    17    10    12 1   
    18    12    13 1   
    19    12    35 1   
    20    13    14 1   
    21    13    36 1   
    22    13    37 1   
    23    14    15 1   
    24    14    38 1   
    25    14    39 1   
    26    15    40 1   
    27    15    41 1   
    28    15    42 1   
    29    16    43 1   
    30    16    44 1   
    31    16    45 1   
    32    17    18 1   
    33    17    46 1   
    34    18    19 ar  
    35    18    23 ar  
    36    19    20 ar  
    37    19    32 1   
    38    20    21 ar  
    39    20    47 1   
    40    21    22 ar  
    41    21    48 1   
    42    22    23 ar  
    43    22    24 1   
    44    23    49 1   
    45    24    25 2   
    46    24    26 1   
    47    26    27 1   
    48    26    50 1   
    49    27    28 2   
    50    27    31 1   
    51    28    29 1   
    52    29    30 1   
    53    30    31 2   
    54    30    51 1   
    55    31    52 1   
    56    32    53 1   
    57    32    54 1   
    58    32    55 1   
@<TRIPOS>SUBSTRUCTURE
     1 39P         1 TEMP              0 ****  ****    0 ROOT
